180
Lattice="14.101100 0.000000 0.000000 0.000000 5.721600 0.000000 -5.476274 0.000000 21.567613"
C -1.013496 2.924882 9.334032
H -0.741553 2.284063 9.951297
C -1.833676 3.933600 9.726346
H -2.109679 3.987383 10.613422
C -2.260222 4.882241 8.812742
H -2.821529 5.568833 9.090749
C -1.866745 4.821592 7.508549
H -2.169170 5.465844 6.910263
C -1.009142 3.800859 7.049374
C -0.580799 3.716179 5.690615
C 0.272079 2.700595 5.344454
C 0.741430 1.758248 6.279411
H 1.334643 1.091681 6.017364
C 0.319314 1.833201 7.566997
H 0.624072 1.205541 8.182752
C -0.568414 2.841347 7.992095
C -0.982655 4.742634 4.660330
H -0.854568 5.623188 5.070546
C -2.430368 4.675692 4.206979
C -3.279182 3.624061 4.505474
H -2.960355 2.907717 5.005843
C -4.589465 3.618912 4.074553
H -5.142749 2.902568 4.287641
C -5.082821 4.661388 3.335216
H -5.967780 4.659671 3.049660
C -4.250033 5.710157 3.020976
H -4.568825 6.419635 2.510470
C -2.948272 5.711873 3.458798
H -2.400135 6.432223 3.243769
C 0.130820 3.355146 3.047935
H -0.739091 2.959784 2.827514
C 0.999398 3.264173 1.822463
C 0.991549 4.284906 0.898722
H 0.456377 5.030431 1.046029
C 1.765788 4.221396 -0.245655
H 1.750198 4.922865 -0.856234
C 2.556464 3.125710 -0.482899
H 3.083712 3.080509 -1.248765
C 2.559457 2.100972 0.421647
H 3.082513 1.348581 0.260968
C 1.793172 2.167914 1.573573
H 1.815648 1.466446 2.184799
N -0.098472 4.688851 3.476699
O 0.754449 2.513499 4.066142
H 0.713934 5.069338 3.685905
C 5.325909 0.064082 1.449775
H 5.053967 -0.576737 0.832510
C 6.146089 1.072800 1.057460
H 6.422092 1.126583 0.170384
C 6.572635 2.021441 1.971064
H 7.133943 2.708033 1.693058
C 6.179158 1.960792 3.275258
H 6.481584 2.605044 3.873543
C 5.321555 0.940059 3.734432
C 4.893213 0.855379 5.093192
C 4.040334 -0.160205 5.439352
C 3.570983 -1.102552 4.504396
H 2.977770 -1.769119 4.766442
C 3.993099 -1.027599 3.216809
H 3.688341 -1.655259 2.601054
C 4.880827 -0.019453 2.791712
C 5.295068 1.881834 6.123477
H 5.166981 2.762388 5.713261
C 6.742781 1.814892 6.576828
C 7.591595 0.763261 6.278332
H 7.272768 0.046917 5.777964
C 8.901878 0.758112 6.709253
H 9.455163 0.041768 6.496165
C 9.395235 1.800588 7.448591
H 10.280193 1.798871 7.734146
C 8.562446 2.849357 7.762831
H 8.881238 3.558835 8.273336
C 7.260685 2.851073 7.325008
H 6.712548 3.571423 7.540037
C 4.181594 0.494346 7.735871
H 5.051504 0.098984 7.956292
C 3.313015 0.403373 8.961343
C 3.320864 1.424106 9.885084
H 3.856036 2.169631 9.737777
C 2.546625 1.360596 11.029462
H 2.562215 2.062065 11.640041
C 1.755949 0.264910 11.266705
H 1.228701 0.219709 12.032571
C 1.752956 -0.759828 10.362160
H 1.229900 -1.512219 10.522838
C 2.519241 -0.692886 9.210233
H 2.496765 -1.394354 8.599007
N 4.410885 1.828051 7.307107
O 3.557964 -0.347301 6.717664
H 3.598480 2.208538 7.097901
C 9.638322 2.796718 12.233581
H 9.366380 3.437537 11.616316
C 10.458502 1.788000 11.841267
H 10.734505 1.734217 10.954191
C 10.885048 0.839359 12.754871
H 11.446356 0.152767 12.476864
C 10.491571 0.900008 14.059064
H 10.793997 0.255756 14.657350
C 9.633968 1.920741 14.518239
C 9.205626 2.005421 15.876998
C 8.352747 3.021005 16.223158
C 7.883396 3.963352 15.288202
H 7.290183 4.629919 15.550249
C 8.305512 3.888399 14.000616
H 8.000754 4.516059 13.384861
C 9.193240 2.880253 13.575518
C 9.607481 0.978966 16.907283
H 9.479394 0.098412 16.497067
C 11.055194 1.045908 17.360634
C 11.904008 2.097539 17.062139
H 11.585181 2.813883 16.561770
C 13.214291 2.102688 17.493060
H 13.767576 2.819032 17.279972
C 13.707648 1.060212 18.232397
H 14.592606 1.061929 18.517952
C 12.874860 0.011443 18.546637
H 13.193651 -0.698035 19.057143
C 11.573098 0.009727 18.108815
H 11.024961 -0.710623 18.323844
C 8.494007 2.366454 18.519678
H 9.363917 2.761816 18.740099
C 7.625428 2.457427 19.745150
C 7.633277 1.436694 20.668891
H 8.168449 0.691169 20.521584
C 6.859039 1.500204 21.813268
H 6.874629 0.798735 22.423847
C 6.068363 2.595890 22.050512
H 5.541114 2.641091 22.816378
C 6.065369 3.620628 21.145966
H 5.542313 4.373019 21.306645
C 6.831654 3.553686 19.994040
H 6.809178 4.255154 19.382814
N 8.723298 1.032749 18.090914
O 7.870377 3.208101 17.501471
H 7.910893 0.652262 17.881708
C 3.298917 5.657518 20.117838
H 3.570860 6.298337 20.735103
C 2.478738 4.648800 20.510153
H 2.202734 4.595017 21.397229
C 2.052191 3.700159 19.596549
H 1.490884 3.013567 19.874555
C 2.445668 3.760808 18.292355
H 2.143243 3.116556 17.694070
C 3.303271 4.781541 17.833181
C 3.731614 4.866221 16.474421
C 4.584493 5.881805 16.128261
C 5.053843 6.824152 17.063217
H 5.647056 7.490719 16.801171
C 4.631727 6.749199 18.350803
H 4.936486 7.376859 18.966559
C 3.743999 5.741053 18.775901
C 3.329759 3.839766 15.444136
H 3.457845 2.959212 15.854352
C 1.882045 3.906708 14.990785
C 1.033231 4.958339 15.289281
H 1.352058 5.674683 15.789649
C -0.277052 4.963488 14.858360
H -0.830336 5.679832 15.071448
C -0.770408 3.921012 14.119022
H -1.655367 3.922729 13.833467
C 0.062380 2.872243 13.804782
H -0.256412 2.162765 13.294277
C 1.364142 2.870527 14.242605
H 1.912279 2.150177 14.027575
C 4.443233 5.227254 13.831742
H 3.573322 5.622616 13.611321
C 5.311811 5.318227 12.606270
C 5.303962 4.297494 11.682529
H 4.768790 3.551969 11.829836
C 6.078201 4.361004 10.538151
H 6.062611 3.659535 9.927572
C 6.868877 5.456690 10.300908
H 7.396125 5.501891 9.535042
C 6.871870 6.481428 11.205453
H 7.394926 7.233819 11.044775
C 6.105585 6.414486 12.357380
H 6.128061 7.115954 12.968606
N 4.213941 3.893549 14.260506
O 5.066863 6.068901 14.849949
H 5.026347 3.513062 14.469712
