128
Lattice="9.047400 0.000000 0.000000 0.000000 18.257900 0.000000 -4.134973 0.000000 8.084622"
O -1.337346 7.445024 0.759146
O 1.493162 5.709976 7.496061
O 3.091584 8.082772 6.258306
O -1.740060 4.556076 1.387321
C -0.024036 7.248204 1.099509
C 1.018651 7.755773 0.355723
C 2.320981 7.523898 0.740551
C 2.567829 6.793582 1.885334
C 2.428828 4.245875 3.745605
C 2.703540 3.485798 4.867751
C 2.395563 3.951922 6.120867
C 1.833454 5.198389 6.275283
C 1.786314 8.371065 5.925219
C 1.273431 9.621548 6.153206
C -0.025817 9.924447 5.813651
C -0.818130 8.947649 5.225899
C -2.359877 6.291672 5.073909
C -3.266750 5.412554 4.540324
C -3.031046 4.859523 3.308227
C -1.890693 5.170820 2.610524
C 0.202268 6.548196 2.296841
C 1.533754 6.300619 2.667117
C 1.836990 5.492524 3.883852
C 1.556520 5.994981 5.153946
C 0.997181 7.361220 5.347169
C -0.314892 7.677995 4.976085
C -1.210735 6.643685 4.380248
C -0.960276 6.089557 3.106920
H 0.820417 8.354815 -0.436570
H 3.063993 7.918451 0.218285
H 3.575270 6.547283 2.102002
H -1.779917 9.108866 5.036719
H -0.506181 10.828760 6.031128
H 1.780547 10.277372 6.548544
H 2.523776 3.381363 6.952775
H 3.118049 2.568887 4.729504
H 2.702158 3.879804 2.853871
H -2.506186 6.633095 5.926028
H -3.996530 5.134121 5.036719
H -3.648587 4.162801 2.958972
H -1.378315 7.695705 -0.064677
H 1.816661 5.276533 8.052283
H 3.647319 8.656070 5.764335
H -0.942347 4.334425 1.099509
O 6.249773 16.573974 7.325476
O 3.419265 14.838926 0.588560
O 1.820843 17.211722 1.826316
O 6.652487 13.685026 6.697301
C 4.936463 16.377154 6.985113
C 3.893775 16.884723 7.728898
C 2.591446 16.652848 7.344070
C 2.344597 15.922532 6.199288
C 2.483598 13.374825 4.339016
C 2.208886 12.614748 3.216871
C 2.516863 13.080872 1.963755
C 3.078972 14.327339 1.809338
C 3.126113 17.500015 2.159402
C 3.638995 18.750498 1.931416
C 4.938243 19.053397 2.270970
C 5.730556 18.076599 2.858722
C 7.272303 15.420622 3.010713
C 8.179176 14.541504 3.544298
C 7.943473 13.988473 4.776394
C 6.803120 14.299770 5.474097
C 4.710158 15.677146 5.787781
C 3.378672 15.429569 5.417505
C 3.075437 14.621474 4.200769
C 3.355907 15.123931 2.930675
C 3.915245 16.490170 2.737453
C 5.227319 16.806945 3.108537
C 6.123161 15.772635 3.704374
C 5.872703 15.218507 4.977702
H 4.092010 17.483765 8.521191
H 1.848433 17.047401 7.866337
H 1.337156 15.676233 5.982620
H 6.692344 18.237816 3.047902
H 5.418608 19.957710 2.053494
H 3.131879 19.406322 1.536078
H 2.388651 12.510313 1.131847
H 1.794377 11.697837 3.355118
H 2.210268 13.008754 5.230750
H 7.418613 15.762045 2.158594
H 8.908957 14.263071 3.047902
H 8.561013 13.291751 5.125650
H 6.290741 16.824655 8.149299
H 3.095766 14.405483 0.032338
H 1.265108 17.785020 2.320286
H 5.854774 13.463375 6.985113
N -3.617428 3.510994 8.367583
N 0.387337 0.454804 3.445666
C -1.615552 3.500039 7.062725
C -2.485466 4.069686 7.965778
C -3.901062 2.312728 7.850168
C -3.098332 1.658913 6.942265
C -1.928399 2.269822 6.521056
C -1.073002 1.634265 5.485416
C -0.765903 0.289388 5.521797
C -0.032594 -0.245934 4.496667
C 0.111440 1.752758 3.427880
C -0.608793 2.368963 4.423905
H -0.795347 3.941881 6.791082
H -2.192328 4.909549 8.408006
H -4.728215 1.869609 8.165468
H -3.425843 0.805173 6.556628
H -1.155757 -0.317687 6.257497
H 0.166760 -1.170331 4.503134
H 0.423734 2.265805 2.603248
H -0.793572 3.299203 4.381865
N 8.529854 12.639944 -0.282962
N 4.525090 9.583754 4.638956
C 6.527978 12.628989 1.021896
C 7.397892 13.198636 0.118844
C 8.813489 11.441678 0.234454
C 8.010758 10.787863 1.142357
C 6.840825 11.398772 1.563566
C 5.985429 10.763215 2.599206
C 5.678330 9.418338 2.562825
C 4.945020 8.883016 3.587955
C 4.800986 10.881708 4.656742
C 5.521219 11.497913 3.660717
H 5.707774 13.070831 1.293539
H 7.104755 14.038499 -0.323385
H 9.640641 10.998559 -0.080846
H 8.338269 9.934123 1.527993
H 6.068184 8.811263 1.827124
H 4.745667 7.958619 3.581487
H 4.488692 11.394755 5.481373
H 5.705998 12.428153 3.702757
