48
Lattice="5.494200 0.000000 0.000000 -2.702239 5.861610 0.000000 -0.254642 -1.815851 13.397606"
C 0.657037 0.182942 4.717029
C 1.846660 0.885218 4.174292
C 2.037081 1.969872 4.917993
C 0.979798 2.079826 5.977208
O 0.137264 -0.840603 4.348059
O 0.161690 0.895387 5.772091
C 2.600890 0.343261 3.000930
C 3.552211 1.335916 2.330648
C 4.423096 0.608457 1.314573
C 2.803735 2.488879 1.669074
C 0.113890 3.317860 5.776512
H 2.783029 2.623370 4.789644
H 3.138839 -0.440268 3.313228
H 1.936298 0.040485 2.317786
H 4.132559 1.733151 3.041257
H 5.043305 1.261289 0.878883
H 4.956028 -0.099112 1.777862
H 3.841733 0.185742 0.618969
H 3.460056 3.112637 1.244638
H 2.274261 2.982660 2.359318
H 2.186103 2.128769 0.969987
H -0.578080 3.360369 6.496499
H 0.687540 4.135492 5.815901
H -0.335821 3.268736 4.884767
C 1.880282 3.862817 8.680577
C 0.690659 3.160541 9.223314
C 0.500238 2.075887 8.479613
C 1.557520 1.965933 7.420398
O 2.400055 4.886363 9.049547
O 2.375629 3.150372 7.625515
C -0.063572 3.702499 10.396676
C -1.014892 2.709843 11.066959
C -1.885777 3.437302 12.083033
C -0.266416 1.556880 11.728532
C 2.423429 0.727899 7.621094
H -0.245710 1.422389 8.607962
H -0.601521 4.486027 10.084378
H 0.601020 4.005274 11.079820
H -1.595240 2.312608 10.356350
H -2.505986 2.784470 12.518723
H -2.418710 4.144872 11.619744
H -1.304415 3.860017 12.778637
H -0.922737 0.933122 12.152968
H 0.263058 1.063099 11.038288
H 0.351215 1.916990 12.427619
H 3.115399 0.685390 6.901107
H 1.849778 -0.089732 7.581705
H 2.873139 0.777023 8.512839
