96
Lattice="8.695200 0.000000 0.000000 1.551347 9.783770 0.000000 4.295595 2.839279 10.038420"
O 7.055351 5.163359 3.875834
O 8.558071 4.937827 6.859253
H 8.184041 5.698373 6.587211
N 8.400509 3.438508 3.370902
N 8.812415 2.504999 2.381113
C 8.249781 1.204018 2.855931
H 8.811025 0.467305 2.537713
C 8.345401 1.302150 4.392813
H 9.160707 0.882420 4.711031
H 7.587175 0.863567 4.810411
C 8.348068 2.812662 4.721069
H 7.516851 3.060928 5.176813
C 7.601032 4.478470 3.007511
C 7.458068 4.768620 1.535878
H 6.927766 5.559320 1.415417
H 7.028648 4.026934 1.103222
H 8.326632 4.904186 1.150403
C 10.163455 2.591584 1.981584
C 10.696094 1.607846 1.139361
H 10.184621 0.867178 0.907473
C 11.981603 1.737111 0.655509
H 12.327880 1.075540 0.101388
C 12.761073 2.827301 0.974731
H 13.626939 2.900213 0.644467
C 12.236435 3.810664 1.794870
H 12.754512 4.551427 2.016719
C 10.946427 3.703111 2.289764
H 10.601239 4.375666 2.830835
C 6.834371 1.021088 2.350998
H 6.836761 1.002075 1.391325
H 6.288231 1.749912 2.655162
H 6.479551 0.194289 2.686281
C 9.550562 3.166449 5.591400
H 10.357763 2.918786 5.113571
H 9.514041 2.628374 6.397485
C 9.666500 4.638606 6.001972
H 9.609467 5.199057 5.198898
C 10.995192 4.874948 6.671534
C 11.126938 4.955361 8.055832
H 10.367121 4.913954 8.590880
C 12.363235 5.093654 8.645088
H 12.423118 5.152217 9.571634
C 13.528802 5.148595 7.881164
H 14.361538 5.231015 8.286716
C 13.414445 5.077241 6.490843
H 14.175370 5.115302 5.957803
C 12.157941 4.949868 5.905603
H 12.092775 4.912829 4.979057
O 7.486791 7.459690 6.162586
O 5.984071 7.685223 3.179168
H 6.358101 6.924676 3.451209
N 6.141633 9.184542 6.667519
N 5.729727 10.118050 7.657307
C 6.292361 11.419032 7.182490
H 5.731117 12.155744 7.500708
C 6.196741 11.320900 5.645608
H 5.381435 11.740629 5.327390
H 6.954967 11.759482 5.228009
C 6.194074 9.810387 5.317351
H 7.025291 9.562122 4.861607
C 6.941110 8.144579 7.030910
C 7.084074 7.854429 8.502542
H 7.614376 7.063729 8.623003
H 7.513494 8.596115 8.935198
H 6.215510 7.718863 8.888017
C 4.378687 10.031465 8.056836
C 3.846048 11.015204 8.899060
H 4.357521 11.755871 9.130947
C 2.560540 10.885938 9.382912
H 2.214262 11.547509 9.937032
C 1.781069 9.795748 9.063690
H 0.915203 9.722836 9.393954
C 2.305707 8.812385 8.243551
H 1.787630 8.071622 8.021702
C 3.595716 8.919938 7.748657
H 3.940903 8.247383 7.207586
C 7.707771 11.601961 7.687422
H 7.705381 11.620975 8.647095
H 8.253911 10.873137 7.383258
H 8.062591 12.428760 7.352139
C 4.991580 9.456600 4.447020
H 4.184379 9.704263 4.924849
H 5.028101 9.994675 3.640935
C 4.875642 7.984443 4.036449
H 4.932675 7.423992 4.839522
C 3.546951 7.748101 3.366886
C 3.415204 7.667688 1.982588
H 4.175021 7.709095 1.447540
C 2.178907 7.529395 1.393333
H 2.119024 7.470832 0.466787
C 1.013340 7.474454 2.157257
H 0.180604 7.392034 1.751704
C 1.127697 7.545808 3.547578
H 0.366772 7.507747 4.080618
C 2.384202 7.673182 4.132818
H 2.449367 7.710220 5.059364
