152
Lattice="10.092100 0.000000 0.000000 0.000000 10.124800 0.000000 -1.483609 0.000000 14.715702"
C 6.481084 9.029297 -0.089471
H 7.197214 8.900712 -0.746086
H 6.433690 9.975965 0.160401
H 5.626269 8.751877 -0.479732
C 5.823764 8.277834 2.070941
C 6.219899 7.476659 3.203903
C 5.463872 7.503793 4.434430
C 5.325274 6.735017 6.670039
H 4.392850 6.448485 6.569089
H 5.349774 7.654349 7.007617
H 5.781163 6.142716 7.303403
C 10.501407 9.184206 2.877214
H 10.603922 10.096451 2.631167
C 10.204331 6.525434 3.609614
H 10.098679 5.617239 3.868758
C 7.485191 5.556693 1.561777
C 11.598239 8.473445 3.325454
H 12.449942 8.890587 3.380197
C 8.359023 5.835935 0.523143
H 9.065638 6.459622 0.641605
C 9.124373 7.254520 3.139153
C 11.443943 7.144059 3.695701
H 12.193537 6.653006 4.011500
C 8.185930 5.187948 -0.692962
H 8.772626 5.371206 -1.417122
C 9.249354 8.586742 2.780385
H 8.497280 9.080933 2.475181
C 7.156204 4.273678 -0.849832
H 7.032650 3.839324 -1.686419
C 6.469262 4.632096 1.420212
H 5.888253 4.437700 2.147021
C 6.311325 3.991196 0.202930
H 5.615990 3.353334 0.092709
O 4.792092 8.915190 1.949389
O 4.479476 8.173549 4.656784
O 6.754485 8.238651 1.078661
O 5.987867 6.674673 5.392275
S 7.553716 6.385813 3.152398
C 7.915261 3.966897 7.447322
H 7.199131 3.838312 8.103937
H 7.962656 4.913565 7.197450
H 8.770076 3.689477 7.837583
C 8.572581 3.215434 5.286910
C 8.176446 2.414259 4.153948
C 8.932473 2.441393 2.923421
C 9.071071 1.672617 0.687812
H 10.003496 1.386085 0.788762
H 9.046571 2.591949 0.350234
H 8.615182 1.080316 0.054448
C 3.894938 4.121806 4.480637
H 3.792423 5.034051 4.726683
C 4.192015 1.463034 3.748236
H 4.297667 0.554839 3.489093
C 6.911154 0.494293 5.796073
C 2.798107 3.411045 4.032397
H 1.946403 3.828187 3.977654
C 6.037322 0.773535 6.834708
H 5.330708 1.397222 6.716246
C 5.271972 2.192120 4.218697
C 2.952402 2.081659 3.662150
H 2.202809 1.590606 3.346351
C 6.210415 0.125548 8.050813
H 5.623719 0.308806 8.774973
C 5.146991 3.524342 4.577466
H 5.899065 4.018533 4.882670
C 7.240142 -0.788722 8.207683
H 7.363696 -1.223076 9.044270
C 7.927084 -0.430304 5.937638
H 8.508093 -0.624700 5.210830
C 8.085021 -1.071204 7.154921
H 8.780356 -1.709066 7.265142
O 9.604253 3.852790 5.408462
O 9.916870 3.111149 2.701067
O 7.641860 3.176251 6.279190
O 8.408478 1.612273 1.965576
S 6.842629 1.323413 4.205453
C 2.127407 1.095503 14.805173
H 1.411277 1.224088 15.461788
H 2.174801 0.148835 14.555301
H 2.982221 1.372923 15.195434
C 2.784726 1.846966 12.644761
C 2.388592 2.648141 11.511799
C 3.144619 2.621007 10.281272
C 3.283216 3.389783 8.045663
H 4.215641 3.676315 8.146612
H 3.258716 2.470451 7.708085
H 2.827328 3.982084 7.412299
C -1.892917 0.940594 11.838488
H -1.995432 0.028349 12.084534
C -1.595840 3.599366 11.106087
H -1.490188 4.507561 10.846944
C 1.123300 4.568107 13.153924
C -2.989748 1.651355 11.390247
H -3.841452 1.234213 11.335505
C 0.249468 4.288865 14.192559
H -0.457147 3.665178 14.074097
C -0.515883 2.870280 11.576548
C -2.835453 2.980741 11.020000
H -3.585046 3.471794 10.704201
C 0.422561 4.936852 15.408664
H -0.164136 4.753594 16.132824
C -0.640863 1.538058 11.935317
H 0.111211 1.043867 12.240521
C 1.452287 5.851122 15.565534
H 1.575841 6.285476 16.402121
C 2.139229 5.492704 13.295489
H 2.720238 5.687100 12.568681
C 2.297166 6.133604 14.512772
H 2.992501 6.771466 14.622993
O 3.816398 1.209610 12.766313
O 4.129015 1.951251 10.058918
O 1.854006 1.886149 13.637041
O 2.620623 3.450127 9.323427
S 1.054774 3.738987 11.563304
C 0.693229 6.157903 7.268379
H 1.409359 6.286488 6.611765
H 0.645835 5.211235 7.518252
H -0.161585 6.435323 6.878119
C 0.035910 6.909366 9.428792
C 0.432044 7.710541 10.561753
C -0.323983 7.683407 11.792280
C -0.462580 8.452183 14.027890
H -1.395005 8.738715 13.926940
H -0.438080 7.532851 14.365468
H -0.006692 9.044484 14.661254
C 4.713553 6.002994 10.235065
H 4.816068 5.090749 9.989018
C 4.416476 8.661766 10.967465
H 4.310824 9.569961 11.226609
C 1.697336 9.630507 8.919628
C 5.810384 6.713755 10.683305
H 6.662088 6.296613 10.738048
C 2.571168 9.351265 7.880994
H 3.277783 8.727578 7.999455
C 3.336519 7.932680 10.497004
C 5.656089 8.043141 11.053552
H 6.405682 8.534194 11.369351
C 2.398075 9.999252 6.664888
H 2.984772 9.815994 5.940729
C 3.461499 6.600458 10.138236
H 2.709425 6.106267 9.833032
C 1.368349 10.913522 6.508019
H 1.244795 11.347876 5.671431
C 0.681407 10.555104 8.778063
H 0.100398 10.749500 9.504872
C 0.523470 11.196004 7.560780
H -0.171865 11.833866 7.450560
O -0.995762 6.272010 9.307240
O -1.308379 7.013651 12.014635
O 0.966630 6.948549 8.436512
O 0.200013 8.512527 12.750125
S 1.765862 8.801387 10.510248
