156
Lattice="10.245900 0.000000 0.000000 0.000000 20.387000 0.000000 -1.819828 0.000000 7.914677"
C 5.757144 2.813202 7.522426
C 6.469504 3.590762 8.491341
C 5.536160 1.418731 7.565561
C 7.309498 2.862946 9.504498
C 8.036112 1.710062 9.208727
H 8.050770 1.372045 8.321492
C 8.737473 1.056250 10.213891
H 9.233594 0.271147 10.012858
C 8.714954 1.548393 11.508732
H 9.177679 1.088666 12.198892
C 8.019375 2.709432 11.799201
H 8.017786 3.053973 12.684853
C 7.323832 3.372825 10.796807
H 6.857139 4.175258 10.995070
C 3.201240 3.851512 6.699220
C 2.485708 2.799951 7.261400
H 2.916781 1.979578 7.473830
C 1.131650 2.969774 7.506755
H 0.627047 2.262957 7.891725
C 0.510524 4.174238 7.190009
H -0.417190 4.285347 7.362233
C 1.233864 5.210713 6.626405
H 0.801257 6.028436 6.407723
C 2.591419 5.056588 6.380100
H 3.095137 5.765444 5.998534
C 4.976002 2.676813 4.875045
C 6.238377 2.335331 4.398344
H 7.020782 2.634000 4.846948
C 6.334230 1.554713 3.259581
H 7.189003 1.302729 2.930013
C 5.187419 1.138614 2.596014
H 5.259124 0.603455 1.814044
C 3.942367 1.502726 3.072240
H 3.160909 1.221181 2.611052
C 3.825714 2.275801 4.219473
H 2.970538 2.525949 4.548565
N 5.338897 0.281748 7.585743
O 6.385695 4.824991 8.534555
S 4.947222 3.752961 6.311638
C 1.759014 13.006702 4.349590
C 1.046654 13.784262 3.380675
C 1.979997 11.612231 4.306455
C 0.206659 13.056446 2.367517
C -0.519954 11.903562 2.663289
H -0.534613 11.565545 3.550524
C -1.221315 11.249750 1.658125
H -1.717436 10.464647 1.859158
C -1.198796 11.741893 0.363284
H -1.661521 11.282166 -0.326876
C -0.503218 12.902932 0.072815
H -0.501628 13.247473 -0.812837
C 0.192325 13.566325 1.075209
H 0.659019 14.368758 0.876946
C 4.314917 14.045012 5.172796
C 5.030450 12.993451 4.610616
H 4.599376 12.173078 4.398186
C 6.384508 13.163274 4.365261
H 6.889110 12.456457 3.980291
C 7.005633 14.367738 4.682006
H 7.933347 14.478847 4.509783
C 6.282293 15.404213 5.245611
H 6.714901 16.221936 5.464293
C 4.924738 15.250088 5.491915
H 4.421021 15.958944 5.873482
C 2.540156 12.870313 6.996970
C 1.277781 12.528831 7.473671
H 0.495376 12.827500 7.025067
C 1.181928 11.748213 8.612435
H 0.327154 11.496229 8.942002
C 2.328738 11.332114 9.276002
H 2.257034 10.796955 10.057972
C 3.573791 11.696226 8.799776
H 4.355249 11.414681 9.260964
C 3.690444 12.469301 7.652543
H 4.545620 12.719449 7.323451
N 2.177261 10.475248 4.286273
O 1.130463 15.018491 3.337461
S 2.568936 13.946461 5.560377
C 2.668928 17.573798 0.392251
C 1.956568 16.796238 -0.576663
C 2.889911 18.968269 0.349116
C 1.116573 17.524054 -1.589821
C 0.389960 18.676938 -1.294050
H 0.375301 19.014955 -0.406814
C -0.311401 19.330750 -2.299214
H -0.807522 20.115853 -2.098181
C -0.288882 18.838607 -3.594055
H -0.751607 19.298334 -4.284215
C 0.406696 17.677568 -3.884524
H 0.408286 17.333027 -4.770176
C 1.102240 17.014175 -2.882130
H 1.568933 16.211742 -3.080392
C 5.224831 16.535488 1.215457
C 5.940364 17.587049 0.653277
H 5.509290 18.407422 0.440848
C 7.294422 17.417226 0.407922
H 7.799025 18.124043 0.022953
C 7.915547 16.212762 0.724668
H 8.843261 16.101653 0.552444
C 7.192207 15.176287 1.288272
H 7.624815 14.358564 1.506955
C 5.834653 15.330412 1.534577
H 5.330935 14.621556 1.916143
C 3.450070 17.710187 3.039632
C 2.187695 18.051669 3.516333
H 1.405290 17.753000 3.067729
C 2.091842 18.832287 4.655097
H 1.237069 19.084271 4.984664
C 3.238653 19.248386 5.318663
H 3.166948 19.783545 6.100633
C 4.483705 18.884274 4.842437
H 5.265163 19.165819 5.303625
C 4.600358 18.111199 3.695204
H 5.455534 17.861051 3.366112
N 3.087175 20.105252 0.328934
O 2.040377 15.562009 -0.619878
S 3.478850 16.634039 1.603039
C 6.667058 7.380298 3.565087
C 7.379418 6.602738 4.534002
C 6.446075 8.774769 3.608222
C 8.219413 7.330554 5.547160
C 8.946026 8.483438 5.251388
H 8.960684 8.821455 4.364153
C 9.647387 9.137250 6.256552
H 10.143508 9.922353 6.055520
C 9.624868 8.645107 7.551393
H 10.087593 9.104834 8.241553
C 8.929290 7.484068 7.841862
H 8.927700 7.139527 8.727515
C 8.233746 6.820675 6.839468
H 7.767053 6.018242 7.037731
C 4.111155 6.341988 2.741882
C 3.395622 7.393549 3.304061
H 3.826695 8.213922 3.516491
C 2.041564 7.223726 3.549416
H 1.536961 7.930543 3.934386
C 1.420439 6.019262 3.232671
H 0.492724 5.908153 3.404894
C 2.143778 4.982787 2.669067
H 1.711171 4.165064 2.450384
C 3.501333 5.136912 2.422762
H 4.005051 4.428056 2.041195
C 5.885916 7.516687 0.917707
C 7.148291 7.858169 0.441006
H 7.930696 7.559500 0.889610
C 7.244144 8.638787 -0.697758
H 8.098917 8.890771 -1.027325
C 6.097333 9.054886 -1.361324
H 6.169038 9.590045 -2.143295
C 4.852281 8.690774 -0.885098
H 4.070823 8.972319 -1.346287
C 4.735628 7.917699 0.262134
H 3.880452 7.667551 0.591226
N 6.248811 9.911752 3.628405
O 7.295609 5.368509 4.577216
S 5.857136 6.440539 2.354300
