176
Lattice="6.016500 0.000000 0.000000 0.000000 8.109100 0.000000 0.000000 0.000000 35.409100"
O -0.006016 -0.341393 19.316018
O -0.341737 -0.115149 21.441981
O 3.352394 4.948173 28.392433
O 5.186825 3.778841 22.112629
N 5.689202 3.572059 19.820598
N 0.310451 0.081902 20.420428
C 4.975646 3.312567 20.836839
C 6.234297 4.658678 22.378197
C 7.141586 4.929522 21.253250
C 8.298558 5.698265 21.388513
C 9.108379 5.945592 20.286227
C 8.763032 5.421744 19.052929
C 7.628320 4.645703 18.910230
C 6.817898 4.391078 20.007558
C 6.332366 5.178471 23.607247
C 5.512919 5.049537 24.809386
C 4.320449 4.315663 24.892243
C 3.570191 4.258899 26.066055
C 4.003981 4.943307 27.185337
C 5.172385 5.686101 27.122662
C 5.907000 5.733945 25.958765
C 3.778362 2.455435 20.753274
C 3.431812 1.893475 19.510414
C 2.296498 1.106892 19.395689
C 1.533606 0.888757 20.523468
C 1.860903 1.403685 21.755705
C 2.988396 2.184592 21.850602
C 2.261001 4.037521 28.540089
H 8.533202 6.054254 22.236915
H 9.894134 6.471062 20.377937
H 9.311135 5.597712 18.295882
H 7.403303 4.286470 18.058641
H 4.015412 3.843713 24.127761
H 2.766988 3.752891 26.096507
H 5.468397 6.166160 27.888207
H 6.705389 6.247251 25.937166
H 3.976907 2.054035 18.749118
H 2.050423 0.727386 18.561450
H 1.324232 1.224474 22.520188
H 3.229056 2.547879 22.693692
H 1.875343 4.131586 29.435585
H 2.582282 3.119571 28.415803
H 1.576323 4.236194 27.866962
H 7.086835 5.744486 23.720556
O -3.014266 4.395943 16.093082
O -3.349987 4.169699 13.967119
O 0.344144 -0.893623 7.016667
O 2.178575 0.275709 13.296471
N 2.680952 0.482491 15.588502
N -2.697799 3.972648 14.988672
C 1.967396 0.741983 14.572261
C 3.226047 -0.604128 13.030903
C 4.133336 -0.874972 14.155850
C 5.290308 -1.643715 14.020587
C 6.100129 -1.891042 15.122873
C 5.754782 -1.367194 16.356171
C 4.620070 -0.591153 16.498870
C 3.809648 -0.336528 15.401542
C 3.324116 -1.123921 11.801853
C 2.504669 -0.994987 10.599714
C 1.312199 -0.261113 10.516857
C 0.561941 -0.204349 9.343045
C 0.995731 -0.888757 8.223763
C 2.164135 -1.631551 8.286438
C 2.898750 -1.679395 9.450335
C 0.770112 1.599115 14.655826
C 0.423562 2.161075 15.898686
C -0.711752 2.947658 16.013411
C -1.474644 3.165793 14.885632
C -1.147347 2.650865 13.653395
C -0.019854 1.869958 13.558498
C -0.747249 0.017029 6.869011
H 5.524952 -1.999704 13.172185
H 6.885884 -2.416512 15.031163
H 6.302885 -1.543162 17.113218
H 4.395053 -0.231920 17.350459
H 1.007162 0.210837 11.281339
H -0.241262 0.301659 9.312593
H 2.460147 -2.111610 7.520893
H 3.697139 -2.192701 9.471934
H 0.968657 2.000515 16.659982
H -0.957827 3.327164 16.847650
H -1.684018 2.830076 12.888912
H 0.220806 1.506671 12.715408
H -1.132907 -0.077036 5.973515
H -0.425968 0.934979 6.993297
H -1.431927 -0.181644 7.542138
H 4.078585 -1.689936 11.688544
O 6.022517 3.713157 33.797632
O 6.358237 3.939401 31.671669
O 2.664106 9.002723 24.721217
O 0.829675 7.833391 31.001021
N 0.327298 7.626609 33.293052
N 5.706049 4.136452 32.693222
C 1.040855 7.367117 32.276811
C -0.217797 8.713228 30.735453
C -1.125085 8.984072 31.860400
C -2.282058 9.752815 31.725137
C -3.091879 10.000142 32.827423
C -2.746532 9.476294 34.060721
C -1.611820 8.700253 34.203420
C -0.801398 8.445628 33.106092
C -0.315866 9.233021 29.506403
C 0.503581 9.104087 28.304264
C 1.696051 8.370213 28.221407
C 2.446309 8.313449 27.047595
C 2.012519 8.997857 25.928313
C 0.844115 9.740651 25.990988
C 0.109500 9.788495 27.154885
C 2.238138 6.509985 32.360376
C 2.584688 5.948025 33.603236
C 3.720002 5.161442 33.717961
C 4.482894 4.943307 32.590182
C 4.155597 5.458235 31.357945
C 3.028104 6.239142 31.263048
C 3.755499 8.092071 24.573561
H -2.516702 10.108804 30.876735
H -3.877634 10.525612 32.735713
H -3.294635 9.652262 34.817768
H -1.386803 8.341020 35.055009
H 2.001088 7.898263 28.985889
H 3.249512 7.807441 27.017143
H 0.548103 10.220710 25.225443
H -0.688889 10.301801 27.176484
H 2.039594 6.108585 34.364532
H 3.966077 4.781936 34.552200
H 4.692268 5.279024 30.593462
H 2.787444 6.602429 30.419958
H 4.141157 8.186136 23.678065
H 3.434218 7.174121 24.697847
H 4.440177 8.290744 25.246688
H -1.070335 9.799036 29.393094
O 9.030766 8.450493 1.611468
O 9.366487 8.224249 3.737431
O 5.672356 3.160927 10.687883
O 3.837925 4.330259 4.408079
N 3.335548 4.537041 2.116048
N 8.714299 8.027198 2.715878
C 4.049105 4.796533 3.132289
C 2.790453 3.450422 4.673647
C 1.883165 3.179578 3.548700
C 0.726192 2.410835 3.683963
C -0.083629 2.163508 2.581677
C 0.261718 2.687356 1.348379
C 1.396430 3.463397 1.205680
C 2.206852 3.718022 2.303008
C 2.692384 2.930629 5.902697
C 3.511831 3.059563 7.104836
C 4.704301 3.793437 7.187693
C 5.454559 3.850201 8.361505
C 5.020769 3.165793 9.480787
C 3.852365 2.422999 9.418112
C 3.117750 2.375155 8.254215
C 5.246388 5.653665 3.048724
C 5.592938 6.215625 1.805864
C 6.728252 7.002208 1.691139
C 7.491144 7.220343 2.818918
C 7.163847 6.705415 4.051155
C 6.036354 5.924508 4.146052
C 6.763749 4.071579 10.835539
H 0.491548 2.054846 4.532365
H -0.869384 1.638038 2.673387
H -0.286385 2.511388 0.591332
H 1.621447 3.822630 0.354091
H 5.009338 4.265387 6.423211
H 6.257762 4.356209 8.391957
H 3.556353 1.942940 10.183657
H 2.319361 1.861849 8.232616
H 5.047843 6.055065 1.044568
H 6.974327 7.381714 0.856900
H 7.700518 6.884626 4.815638
H 5.795694 5.561221 4.989142
H 7.149407 3.977514 11.731035
H 6.442468 4.989529 10.711253
H 7.448427 3.872906 10.162412
H 1.937915 2.364614 6.016006
