124
Lattice="6.340200 0.000000 0.000000 0.000000 8.249600 0.000000 0.000000 0.000000 18.862300"
O 5.082304 4.889538 5.161668
C 4.926335 3.705720 5.932005
C 6.240025 3.248692 6.581811
C 6.780844 4.312891 7.510779
O 8.059662 4.602452 7.225770
C 8.722213 5.571780 8.075894
O 6.169015 4.831791 8.410700
C 6.014948 1.913082 7.344980
N 5.673845 0.893432 6.326227
C 5.739783 -0.461153 6.902659
C 4.276465 1.269613 6.002361
C 4.317676 2.540052 5.151294
C 3.606940 1.528651 7.378366
C 4.779877 1.960930 8.279607
H 4.307532 3.926810 6.690458
H 6.894967 3.084525 5.851085
H 9.496352 5.920738 7.586417
H 9.019569 5.120527 8.880371
H 8.107214 6.285370 8.293753
H 6.832200 1.663119 7.867465
H 5.447500 -1.146694 6.260397
H 6.649602 -0.657493 7.182764
H 5.160289 -0.490851 7.707136
H 3.815532 0.532924 5.504019
H 4.852155 2.365985 4.347760
H 3.367914 2.776815 4.868360
H 3.184682 0.692141 7.733543
H 2.923466 2.258740 7.295938
H 4.890830 1.294362 9.018066
H 4.641026 2.889835 8.601209
H 5.699206 4.794668 4.570335
O 1.912204 -0.764738 13.700632
C 1.756235 0.419080 12.930295
C 3.069925 0.876108 12.280489
C 3.610744 -0.188091 11.351521
O 4.889562 -0.477652 11.636530
C 5.552113 -1.446980 10.786406
O 2.998915 -0.706991 10.451600
C 2.844848 2.211718 11.517320
N 2.503745 3.231368 12.536073
C 2.569683 4.585953 11.959641
C 1.106365 2.855187 12.859939
C 1.147576 1.584748 13.711006
C 0.436840 2.596149 11.483934
C 1.609777 2.163870 10.582693
H 1.137432 0.197990 12.171842
H 3.724868 1.040275 13.011215
H 6.326252 -1.795938 11.275883
H 5.849469 -0.995727 9.981929
H 4.937114 -2.160570 10.568547
H 3.662100 2.461681 10.994835
H 2.277400 5.271494 12.601903
H 3.479502 4.782293 11.679536
H 1.990189 4.615651 11.155164
H 0.645432 3.591876 13.358281
H 1.682055 1.758815 14.514540
H 0.197814 1.347985 13.993940
H 0.014582 3.432659 11.128757
H -0.246634 1.866060 11.566362
H 1.720730 2.830438 9.844234
H 1.470926 1.234965 10.261091
H 2.529106 -0.669868 14.291965
O 1.257896 9.014338 4.269482
C 1.413865 7.830520 3.499145
C 0.100175 7.373492 2.849339
C -0.440644 8.437691 1.920371
O -1.719462 8.727252 2.205380
C -2.382013 9.696580 1.355256
O 0.171185 8.956591 1.020450
C 0.325252 6.037882 2.086170
N 0.666355 5.018232 3.104923
C 0.600417 3.663647 2.528491
C 2.063735 5.394413 3.428789
C 2.022524 6.664852 4.279856
C 2.733260 5.653451 2.052784
C 1.560323 6.085730 1.151543
H 2.032668 8.051610 2.740692
H -0.554767 7.209325 3.580065
H -3.156152 10.045538 1.844733
H -2.679369 9.245327 0.550779
H -1.767014 10.410170 1.137397
H -0.492000 5.787919 1.563685
H 0.892700 2.978106 3.170753
H -0.309402 3.467307 2.248386
H 1.179911 3.633949 1.724014
H 2.524668 4.657724 3.927131
H 1.488045 6.490785 5.083390
H 2.972286 6.901615 4.562790
H 3.155518 4.816941 1.697607
H 3.416734 6.383540 2.135212
H 1.449370 5.419162 0.413084
H 1.699174 7.014635 0.829941
H 0.640994 8.919468 4.860815
O 4.427996 3.360062 14.592818
C 4.583965 4.543880 15.363155
C 3.270275 5.000908 16.012961
C 2.729456 3.936709 16.941929
O 1.450638 3.647148 16.656920
C 0.788087 2.677820 17.507044
O 3.341285 3.417809 17.841850
C 3.495352 6.336518 16.776130
N 3.836455 7.356168 15.757377
C 3.770517 8.710753 16.333809
C 5.233835 6.979987 15.433511
C 5.192624 5.709548 14.582444
C 5.903360 6.720949 16.809516
C 4.730423 6.288670 17.710757
H 5.202768 4.322790 16.121608
H 2.615333 5.165075 15.282235
H 0.013948 2.328862 17.017567
H 0.490731 3.129073 18.311521
H 1.403086 1.964230 17.724903
H 2.678100 6.586481 17.298615
H 4.062800 9.396294 15.691547
H 2.860698 8.907093 16.613914
H 4.350011 8.740451 17.138286
H 5.694768 7.716676 14.935169
H 4.658145 5.883615 13.778910
H 6.142386 5.472785 14.299510
H 6.325618 7.557459 17.164693
H 6.586834 5.990860 16.727088
H 4.619470 6.955238 18.449216
H 4.869274 5.359765 18.032359
H 3.811094 3.454932 14.001485
