196
Lattice="9.301700 0.000000 0.000000 0.000000 9.764200 0.000000 -0.957022 0.000000 21.893093"
O 1.224897 8.994293 -2.080063
O 2.231079 7.217501 -1.403785
O 3.711805 4.208273 2.056418
O 4.491532 6.281408 1.712478
N 1.919684 8.392037 -1.280965
N 0.394035 7.198656 1.193392
N -0.015812 5.964559 1.417140
N 1.056356 5.214962 1.684017
C 2.448067 8.524830 1.130997
C 2.439726 9.129918 -0.123039
C 2.954935 10.385887 -0.378094
C 3.550357 11.069185 0.659858
C 3.587271 10.502081 1.921995
C 3.030692 9.245721 2.189309
C 3.041829 8.751652 3.590029
C 4.218860 8.796958 4.330673
C 4.235638 8.417717 5.659802
C 3.071055 7.990045 6.274998
C 1.892268 7.946399 5.555372
C 1.876130 8.323102 4.220113
C 1.746591 7.235077 1.333946
C 2.190227 5.969832 1.643733
C 3.523466 5.373630 1.834641
C 5.836872 5.762636 1.896818
C 0.848575 3.810967 2.055980
C 0.992900 3.574283 3.542083
C 0.910942 4.605187 4.467942
C 0.990257 4.338625 5.826190
C 1.148415 3.039888 6.272371
C 1.243683 2.004297 5.354832
C 1.161501 2.269786 3.998336
H 2.925916 10.748431 -1.267610
H 3.928654 11.916230 0.540759
H 3.973323 11.012065 2.646875
H 5.045400 9.091447 3.890403
H 5.052962 8.443104 6.143202
H 3.071246 7.717624 7.196260
H 1.063008 7.678567 5.983382
H 1.065295 8.334721 3.739340
H 5.958995 5.487480 2.843913
H 6.438169 6.473665 1.670443
H 5.958960 4.989506 1.355182
H -0.044224 3.615683 1.777719
H 1.488896 3.239762 1.539084
H 0.799017 5.528490 4.170634
H 0.911757 5.069573 6.443137
H 1.185382 2.867746 7.226910
H 1.357919 1.117024 5.641850
H 1.192063 1.556413 3.371536
O 7.598292 4.112193 13.026609
O 6.592110 2.335401 12.350331
O 5.111384 -0.673827 8.890128
O 4.331657 1.399308 9.234069
N 6.903505 3.509937 12.227511
N 8.429154 2.316556 9.753154
N 8.839001 1.082459 9.529406
N 7.766833 0.332862 9.262530
C 6.375122 3.642730 9.815549
C 6.383463 4.247818 11.069586
C 5.868254 5.503787 11.324640
C 5.272833 6.187085 10.286689
C 5.235918 5.619981 9.024552
C 5.792497 4.363621 8.757237
C 5.781360 3.869552 7.356517
C 4.604329 3.914858 6.615874
C 4.587551 3.535617 5.286744
C 5.752134 3.107945 4.671548
C 6.930921 3.064299 5.391174
C 6.947059 3.441002 6.726434
C 7.076599 2.352977 9.612600
C 6.632962 1.087732 9.302813
C 5.299723 0.491530 9.111905
C 2.986318 0.880536 9.049729
C 7.974615 -1.071133 8.890566
C 7.830289 -1.307817 7.404463
C 7.912247 -0.276913 6.478604
C 7.832932 -0.543475 5.120357
C 7.674774 -1.842212 4.674175
C 7.579506 -2.877803 5.591715
C 7.661688 -2.612314 6.948211
H 5.897273 5.866331 12.214156
H 4.894535 7.034130 10.405787
H 4.849866 6.129965 8.299671
H 3.777789 4.209347 7.056144
H 3.770227 3.561004 4.803345
H 5.751943 2.835524 3.750287
H 7.760181 2.796467 4.963164
H 7.757894 3.452621 7.207206
H 2.864195 0.605380 8.102634
H 2.385020 1.591565 9.276103
H 2.864229 0.107406 9.591364
H 8.867413 -1.266417 9.168827
H 7.334293 -1.642338 9.407462
H 8.024172 0.646390 6.775912
H 7.911433 0.187473 4.503409
H 7.637808 -2.014354 3.719636
H 7.465270 -3.765076 5.304696
H 7.631126 -3.325687 7.575010
O 7.119782 0.769907 23.973155
O 6.113600 2.546699 23.296878
O 4.632874 5.555927 19.836674
O 3.853146 3.482792 20.180615
N 6.424994 1.372163 23.174057
N 7.950643 2.565544 20.699700
N 8.360490 3.799641 20.475953
N 7.288322 4.549238 20.209076
C 5.896612 1.239370 20.762095
C 5.904952 0.634282 22.016132
C 5.389744 -0.621687 22.271186
C 4.794322 -1.304985 21.233235
C 4.757407 -0.737881 19.971098
C 5.313986 0.518479 19.703783
C 5.302849 1.012548 18.303063
C 4.125818 0.967242 17.562420
C 4.109040 1.346483 16.233290
C 5.273624 1.774155 15.618094
C 6.452410 1.817801 16.337720
C 6.468548 1.441098 17.672980
C 6.598088 2.529123 20.559147
C 6.154451 3.794368 20.249359
C 4.821212 4.390570 20.058451
C 2.507807 4.001564 19.996275
C 7.496104 5.953233 19.837112
C 7.351778 6.189917 18.351009
C 7.433736 5.159013 17.425150
C 7.354421 5.425575 16.066903
C 7.196263 6.724312 15.620722
C 7.100995 7.759903 16.538261
C 7.183177 7.494414 17.894757
H 5.418762 -0.984231 23.160703
H 4.416025 -2.152030 21.352333
H 4.371355 -1.247865 19.246218
H 3.299278 0.672753 18.002690
H 3.291716 1.321096 15.749891
H 5.273433 2.046576 14.696833
H 7.281670 2.085633 15.909710
H 7.279383 1.429479 18.153752
H 2.385684 4.276720 19.049180
H 1.906509 3.290535 20.222650
H 2.385718 4.774694 20.537910
H 8.388902 6.148517 20.115374
H 6.855783 6.524438 20.354008
H 7.545662 4.235710 17.722458
H 7.432922 4.694627 15.449955
H 7.159297 6.896454 14.666183
H 6.986760 8.647176 16.251243
H 7.152615 8.207787 18.521556
O 0.746386 5.652007 8.866484
O 1.752568 7.428799 9.542761
O 3.233294 10.438027 13.002965
O 4.013022 8.364892 12.659024
N 1.441173 6.254263 9.665581
N -0.084475 7.447644 12.139939
N -0.494322 8.681741 12.363686
N 0.577846 9.431338 12.630563
C 1.969556 6.121470 12.077543
C 1.961216 5.516382 10.823507
C 2.476424 4.260413 10.568453
C 3.071846 3.577115 11.606404
C 3.108760 4.144219 12.868541
C 2.552181 5.400579 13.135856
C 2.563318 5.894648 14.536576
C 3.740349 5.849342 15.277219
C 3.757127 6.228583 16.606349
C 2.592544 6.656255 17.221545
C 1.413757 6.699901 16.501919
C 1.397619 6.323198 15.166659
C 1.268080 7.411223 12.280492
C 1.711716 8.676468 12.590280
C 3.044955 9.272670 12.781187
C 5.358361 8.883664 12.843364
C 0.370064 10.835333 13.002527
C 0.514389 11.072017 14.488630
C 0.432431 10.041113 15.414489
C 0.511746 10.307675 16.772736
C 0.669905 11.606412 17.218917
C 0.765172 12.642003 16.301378
C 0.682991 12.376514 14.944882
H 2.447405 3.897869 9.678936
H 3.450143 2.730070 11.487306
H 3.494813 3.634235 13.593421
H 4.566890 5.554853 14.836949
H 4.574452 6.203196 17.089748
H 2.592735 6.928676 18.142806
H 0.584497 6.967733 16.929929
H 0.586784 6.311579 14.685887
H 5.480484 9.158820 13.790459
H 5.959658 8.172635 12.616989
H 5.480449 9.656794 12.301729
H -0.522735 11.030617 12.724265
H 1.010385 11.406538 12.485631
H 0.320506 9.117810 15.117180
H 0.433246 9.576727 17.389683
H 0.706871 11.778554 18.173456
H 0.879408 13.529276 16.588396
H 0.713553 13.089887 14.318083
