160
Lattice="12.083900 0.000000 0.000000 0.000000 6.419700 0.000000 -5.051983 0.000000 19.085378"
O 0.684121 2.780372 6.704503
O 3.708729 -0.842907 10.771024
N 4.827343 1.108040 11.089177
N 5.153543 2.130056 11.975502
C 3.612500 3.033950 8.819162
H 4.049459 3.711871 9.321299
C 2.471900 3.342738 8.096972
H 2.136254 4.231224 8.103652
C 1.811459 2.357314 7.358558
C 2.324051 1.059251 7.321151
H 1.894928 0.387108 6.805846
C 3.480037 0.762660 8.054602
H 3.831488 -0.120048 8.031127
C 4.125575 1.732035 8.815536
C 5.300469 1.348137 9.700334
H 5.762737 0.537971 9.340384
C 6.317749 2.484424 9.963522
H 7.248328 2.147390 9.932031
H 6.215310 3.217554 9.306030
C 5.948582 2.940223 11.355418
C 6.475592 4.139423 12.009474
C 6.093633 4.466185 13.315487
H 5.479438 3.910239 13.779643
C 6.606463 5.597336 13.937288
H 6.332236 5.809187 14.821705
C 7.519118 6.429330 13.284187
C 7.886798 6.111554 11.977793
H 8.497096 6.672636 11.514209
C 7.372684 4.981687 11.339387
H 7.631532 4.783318 10.447336
C -0.005347 1.830898 5.892229
H -0.784602 2.259092 5.479412
H -0.301202 1.079794 6.447041
H 0.596745 1.502210 5.191223
C 4.061524 0.077036 11.497986
H 3.778042 0.063555 12.405496
C 8.091372 7.644579 13.971833
H 9.035374 7.744726 13.726204
H 8.015114 7.536728 14.941943
H 7.595608 8.442547 13.691850
O 3.210112 3.639328 -2.838187
O 6.234720 7.262607 1.228335
N 7.353335 5.311660 1.546488
N 7.679535 4.289644 2.432813
C 6.138491 3.385750 -0.723527
H 6.575450 2.707829 -0.221390
C 4.997892 3.076962 -1.445717
H 4.662245 2.188476 -1.439038
C 4.337450 4.062386 -2.184131
C 4.850042 5.360449 -2.221538
H 4.420919 6.032592 -2.736843
C 6.006029 5.657040 -1.488087
H 6.357480 6.539748 -1.511562
C 6.651567 4.687665 -0.727153
C 7.826460 5.071563 0.157645
H 8.288729 5.881729 -0.202305
C 8.843740 3.935276 0.420833
H 9.774319 4.272310 0.389342
H 8.741302 3.202146 -0.236659
C 8.474574 3.479477 1.812729
C 9.001584 2.280277 2.466785
C 8.619625 1.953515 3.772798
H 8.005429 2.509461 4.236954
C 9.132455 0.822364 4.394599
H 8.858227 0.610513 5.279016
C 10.045110 -0.009630 3.741498
C 10.412790 0.308146 2.435103
H 11.023088 -0.252936 1.971520
C 9.898676 1.438013 1.796698
H 10.157524 1.636382 0.904647
C 2.520645 4.588802 -3.650460
H 1.741390 4.160608 -4.063277
H 2.224789 5.339906 -3.095648
H 3.122736 4.917490 -4.351466
C 6.587516 6.342664 1.955297
H 6.304034 6.356145 2.862807
C 10.617364 -1.224879 4.429144
H 11.561366 -1.325026 4.183515
H 10.541105 -1.117028 5.399254
H 10.121600 -2.022847 4.149161
O -5.357829 -0.429478 6.704503
O -2.333221 -4.052757 10.771024
N -1.214607 -2.101810 11.089177
N -0.888407 -1.079794 11.975502
C -2.429450 -0.175900 8.819162
H -1.992491 0.502021 9.321299
C -3.570050 0.132888 8.096972
H -3.905696 1.021374 8.103652
C -4.230491 -0.852536 7.358558
C -3.717899 -2.150599 7.321151
H -4.147022 -2.822742 6.805846
C -2.561913 -2.447190 8.054602
H -2.210462 -3.329898 8.031127
C -1.916375 -1.477815 8.815536
C -0.741481 -1.861713 9.700334
H -0.279213 -2.671879 9.340384
C 0.275799 -0.725426 9.963522
H 1.206378 -1.062460 9.932031
H 0.173360 0.007704 9.306030
C -0.093368 -0.269627 11.355418
C 0.433642 0.929573 12.009474
C 0.051683 1.256335 13.315487
H -0.562512 0.700389 13.779643
C 0.564513 2.387486 13.937288
H 0.290286 2.599337 14.821705
C 1.477168 3.219480 13.284187
C 1.844848 2.901704 11.977793
H 2.455146 3.462786 11.514209
C 1.330734 1.771837 11.339387
H 1.589582 1.573468 10.447336
C -6.047297 -1.378952 5.892229
H -6.826552 -0.950758 5.479412
H -6.343152 -2.130056 6.447041
H -5.445205 -1.707640 5.191223
C -1.980426 -3.132814 11.497986
H -2.263908 -3.146295 12.405496
C 2.049422 4.434729 13.971833
H 2.993424 4.534876 13.726204
H 1.973164 4.326878 14.941943
H 1.553658 5.232697 13.691850
O -2.831838 6.849178 -2.838187
O 0.192770 10.472457 1.228335
N 1.311385 8.521510 1.546488
N 1.637585 7.499494 2.432813
C 0.096541 6.595600 -0.723527
H 0.533500 5.917679 -0.221390
C -1.044058 6.286812 -1.445717
H -1.379705 5.398326 -1.439038
C -1.704500 7.272236 -2.184131
C -1.191908 8.570299 -2.221538
H -1.621031 9.242442 -2.736843
C -0.035921 8.866890 -1.488087
H 0.315530 9.749598 -1.511562
C 0.609617 7.897515 -0.727153
C 1.784510 8.281413 0.157645
H 2.246779 9.091579 -0.202305
C 2.801790 7.145126 0.420833
H 3.732369 7.482160 0.389342
H 2.699352 6.411996 -0.236659
C 2.432624 6.689327 1.812729
C 2.959634 5.490127 2.466785
C 2.577675 5.163365 3.772798
H 1.963479 5.719311 4.236954
C 3.090505 4.032214 4.394599
H 2.816277 3.820363 5.279016
C 4.003160 3.200220 3.741498
C 4.370840 3.517996 2.435103
H 4.981138 2.956914 1.971520
C 3.856726 4.647863 1.796698
H 4.115574 4.846232 0.904647
C -3.521305 7.798652 -3.650460
H -4.300560 7.370458 -4.063277
H -3.817161 8.549756 -3.095648
H -2.919214 8.127340 -4.351466
C 0.545566 9.552514 1.955297
H 0.262084 9.565995 2.862807
C 4.575414 1.984971 4.429144
H 5.519416 1.884824 4.183515
H 4.499155 2.092822 5.399254
H 4.079650 1.187003 4.149161
