272
Lattice="17.797000 0.000000 0.000000 0.000000 8.102000 0.000000 -6.611624 0.000000 18.912632"
S 1.137449 2.322033 0.857688
O -5.671901 4.097181 7.300276
O -5.514778 3.858983 5.089389
O -0.734518 -0.309496 11.167909
O 1.400506 -0.378363 10.507858
C -0.492403 1.786491 1.255799
C -1.235737 1.204767 0.215604
C -2.537273 0.809390 0.446338
C -3.127455 1.088909 1.666203
C -2.366831 1.651998 2.687485
C -0.991621 1.957443 2.536184
C -0.227547 2.528634 3.659594
C 0.794785 3.525180 3.356992
C 1.268827 4.406678 4.363144
C 2.274177 5.336787 4.037847
C 2.811276 5.381348 2.776374
C 2.392504 4.477165 1.800483
C 1.409684 3.543815 2.076607
C -0.511933 2.264509 4.987261
C -1.152503 1.000597 5.429817
C -1.032497 -0.163660 4.648725
C -1.663349 -1.342501 5.002391
C -2.438362 -1.362756 6.165518
C -2.459927 -0.255213 6.980652
C -1.787993 0.930920 6.672377
C -1.764468 2.072492 7.669072
C -0.743251 3.154109 7.298385
C -0.426732 4.122298 8.230777
C 0.451697 5.161784 7.937632
C 0.999728 5.262249 6.685615
C 0.706858 4.328899 5.705941
C -0.161301 3.227027 6.010434
C -3.179841 2.721462 7.716354
C -3.685334 3.125752 6.347079
C -5.060585 3.760948 6.350862
C -6.850002 4.443947 4.953218
C -1.459067 1.508592 9.076172
C -0.068977 0.873396 9.187757
C 0.117198 0.038079 10.396274
C 1.715639 -1.237175 11.627486
H -0.844225 1.083967 -0.642651
H -3.024188 0.348710 -0.226195
H -4.047834 0.897702 1.805967
H -2.786598 1.839478 3.518128
H 2.585512 5.942007 4.699978
H 3.473014 6.030400 2.567012
H 2.785333 4.503173 0.936932
H -0.505702 -0.139516 3.859123
H -1.571057 -2.121104 4.466029
H -2.946634 -2.133500 6.391524
H -2.953443 -0.297667 7.790113
H -0.818066 4.077494 9.095652
H 0.670392 5.801680 8.604113
H 1.587353 5.981788 6.486655
H -3.817271 2.078730 8.119382
H -3.150293 3.521858 8.299241
H -3.042819 3.764027 5.947834
H -3.709218 2.322924 5.768353
H -7.501018 3.884099 5.425656
H -7.089667 4.495233 4.005128
H -6.852464 5.344565 5.340549
H -1.531547 2.241337 9.738114
H -2.141812 0.828511 9.303880
H 0.091318 0.313953 8.386618
H 0.611168 1.593582 9.190972
H 1.519270 -0.767178 12.465127
H 2.665777 -1.474078 11.600630
H 1.173821 -2.052723 11.576800
S 4.455239 6.373033 8.598628
O 11.264589 8.148181 2.156040
O 11.107466 7.909983 4.366927
O 6.327206 3.741504 -1.711593
O 4.192182 3.672637 -1.051542
C 6.085091 5.837491 8.200517
C 6.828425 5.255767 9.240712
C 8.129961 4.860390 9.009978
C 8.720143 5.139909 7.790113
C 7.959519 5.702998 6.768831
C 6.584309 6.008443 6.920132
C 5.820235 6.579634 5.796722
C 4.797903 7.576180 6.099324
C 4.323861 8.457678 5.093172
C 3.318511 9.387787 5.418469
C 2.781412 9.432348 6.679942
C 3.200184 8.528165 7.655833
C 4.183004 7.594815 7.379709
C 6.104621 6.315509 4.469055
C 6.745191 5.051597 4.026499
C 6.625185 3.887340 4.807591
C 7.256037 2.708499 4.453925
C 8.031050 2.688244 3.290798
C 8.052615 3.795787 2.475664
C 7.380681 4.981920 2.783939
C 7.357156 6.123492 1.787244
C 6.335938 7.205109 2.157931
C 6.019420 8.173298 1.225539
C 5.140990 9.212784 1.518684
C 4.592960 9.313249 2.770701
C 4.885830 8.379899 3.750375
C 5.753989 7.278027 3.445882
C 8.772529 6.772462 1.739962
C 9.278022 7.176752 3.109237
C 10.653273 7.811948 3.105454
C 12.442689 8.494947 4.503098
C 7.051755 5.559592 0.380144
C 5.661665 4.924396 0.268559
C 5.475490 4.089079 -0.939958
C 3.877049 2.813825 -2.171170
H 6.436913 5.134967 10.098967
H 8.616876 4.399710 9.682511
H 9.640522 4.948702 7.650349
H 8.379286 5.890478 5.938188
H 3.007175 9.993007 4.756338
H 2.119674 10.081400 6.889304
H 2.807355 8.554173 8.519384
H 6.098390 3.911484 5.597193
H 7.163745 1.929896 4.990287
H 8.539322 1.917500 3.064792
H 8.546131 3.753333 1.666203
H 6.410754 8.128494 0.360664
H 4.922296 9.852680 0.852203
H 4.005335 10.032788 2.969661
H 9.409959 6.129730 1.336934
H 8.742981 7.572858 1.157075
H 8.635507 7.815027 3.508482
H 9.301906 6.373924 3.687963
H 13.093706 7.935099 4.030660
H 12.682355 8.546233 5.451188
H 12.445152 9.395565 4.115767
H 7.124235 6.292337 -0.281798
H 7.734500 4.879511 0.152436
H 5.501370 4.364952 1.069698
H 4.981520 5.644582 0.265344
H 4.073418 3.283822 -3.008811
H 2.926911 2.576922 -2.144314
H 4.418867 1.998277 -2.120484
S 10.047927 5.779967 18.054944
O 16.857277 4.004819 11.612356
O 16.700154 4.243017 13.823243
O 11.919894 8.411496 7.744723
O 9.784870 8.480363 8.404774
C 11.677779 6.315509 17.656833
C 12.421113 6.897233 18.697028
C 13.722649 7.292610 18.466294
C 14.312831 7.013091 17.246429
C 13.552207 6.450002 16.225147
C 12.176997 6.144557 16.376448
C 11.412922 5.573366 15.253038
C 10.390591 4.576820 15.555640
C 9.916549 3.695322 14.549488
C 8.911199 2.765213 14.874785
C 8.374100 2.720652 16.136258
C 8.792872 3.624835 17.112149
C 9.775692 4.558185 16.836025
C 11.697309 5.837491 13.925371
C 12.337879 7.101403 13.482815
C 12.217873 8.265660 14.263907
C 12.848725 9.444501 13.910241
C 13.623738 9.464756 12.747114
C 13.645303 8.357213 11.931980
C 12.973369 7.171080 12.240255
C 12.949844 6.029508 11.243560
C 11.928626 4.947891 11.614247
C 11.612108 3.979702 10.681855
C 10.733678 2.940216 10.975000
C 10.185648 2.839751 12.227017
C 10.478518 3.773101 13.206691
C 11.346677 4.874973 12.902198
C 14.365217 5.380538 11.196278
C 14.870710 4.976248 12.565553
C 16.245960 4.341052 12.561770
C 18.035377 3.658053 13.959414
C 12.644443 6.593408 9.836460
C 11.254353 7.228604 9.724875
C 11.068178 8.063921 8.516358
C 9.469737 9.339175 7.285146
H 12.029601 7.018033 19.555283
H 14.209564 7.753290 19.138827
H 15.233210 7.204298 17.106665
H 13.971974 6.262522 15.394504
H 8.599863 2.159993 14.212654
H 7.712362 2.071600 16.345621
H 8.400042 3.598827 17.975700
H 11.691078 8.241516 15.053509
H 12.756433 10.223104 14.446603
H 14.132010 10.235500 12.521108
H 14.138819 8.399667 11.122519
H 12.003442 4.024506 9.816980
H 10.514984 2.300320 10.308519
H 9.598023 2.120212 12.425978
H 15.002647 6.023270 10.793250
H 14.335669 4.580142 10.613391
H 14.228195 4.337973 12.964798
H 14.894594 5.779076 13.144279
H 18.686394 4.217901 13.486976
H 18.275042 3.606767 14.907504
H 18.037840 2.757435 13.572083
H 12.716923 5.860663 9.174518
H 13.327187 7.273489 9.608752
H 11.094058 7.788048 10.526015
H 10.574207 6.508418 9.721660
H 9.666106 8.869178 6.447505
H 8.519599 9.576078 7.312002
H 10.011555 10.154723 7.335832
S 6.730137 1.728967 10.314004
O -0.079213 -0.046181 16.756592
O 0.077910 0.192017 14.545705
O 4.858170 4.360496 20.624225
O 6.993194 4.429363 19.964174
C 5.100285 2.264509 10.712115
C 4.356951 2.846233 9.671920
C 3.055415 3.241610 9.902654
C 2.465233 2.962091 11.122519
C 3.225857 2.399002 12.143801
C 4.601067 2.093557 11.992500
C 5.365141 1.522366 13.115910
C 6.387473 0.525820 12.813308
C 6.861515 -0.355678 13.819460
C 7.866865 -1.285787 13.494163
C 8.403964 -1.330348 12.232690
C 7.985192 -0.426165 11.256799
C 7.002372 0.507185 11.532923
C 5.080755 1.786491 14.443577
C 4.440185 3.050403 14.886133
C 4.560191 4.214660 14.105041
C 3.929339 5.393501 14.458707
C 3.154326 5.413756 15.621834
C 3.132761 4.306213 16.436969
C 3.804695 3.120080 16.128693
C 3.828220 1.978508 17.125388
C 4.849437 0.896891 16.754701
C 5.165956 -0.071298 17.687094
C 6.044385 -1.110784 17.393948
C 6.592416 -1.211249 16.141931
C 6.299546 -0.277899 15.162257
C 5.431387 0.823973 15.466751
C 2.412847 1.329538 17.172670
C 1.907354 0.925248 15.803395
C 0.532103 0.290052 15.807178
C -1.257314 -0.392947 14.409534
C 4.133621 2.542408 18.532488
C 5.523711 3.177604 18.644073
C 5.709886 4.012921 19.852590
C 7.308327 5.288175 21.083802
H 4.748463 2.967033 8.813665
H 2.568500 3.702290 9.230121
H 1.544854 3.153298 11.262283
H 2.806090 2.211522 12.974444
H 8.178200 -1.891007 14.156294
H 9.065701 -1.979400 12.023328
H 8.378021 -0.452173 10.393248
H 5.086986 4.190516 13.315439
H 4.021631 6.172104 13.922345
H 2.646054 6.184500 15.847840
H 2.639245 4.348667 17.246429
H 4.774621 -0.026494 18.551968
H 6.263080 -1.750680 18.060429
H 7.180041 -1.930788 15.942971
H 1.775417 1.972270 17.575698
H 2.442395 0.529142 17.755557
H 2.549869 0.286973 15.404150
H 1.883470 1.728076 15.224669
H -1.908330 0.166901 14.881972
H -1.496979 -0.444233 13.461444
H -1.259776 -1.293565 14.796865
H 4.061141 1.809663 19.194430
H 3.450876 3.222489 18.760196
H 5.684006 3.737048 17.842934
H 6.203856 2.457418 18.647288
H 7.111958 4.818178 21.921443
H 8.258465 5.525078 21.056946
H 6.766509 6.103723 21.033116
