144
Lattice="9.768200 0.000000 0.000000 0.830049 11.371045 0.000000 0.741824 2.836844 12.088352"
Ru 6.339692 3.037923 0.974079
Ru 2.441170 3.869429 6.784467
N 6.473813 3.632475 2.914502
H 7.145772 4.094574 3.187698
N 4.541111 2.500196 1.767317
H 3.910067 2.202521 1.264442
C 5.465237 3.432965 5.131505
H 6.157016 3.889875 5.552180
C 5.494461 3.288657 3.755851
C 4.363977 2.619799 3.086156
C 3.294447 2.171406 3.850140
H 2.555055 1.802625 3.422212
C 2.228946 1.780863 6.067144
H 1.460395 1.459549 5.652513
C 2.297131 1.779034 7.479063
H 1.622245 1.381939 7.981939
C 3.387713 2.379685 8.110075
H 3.446506 2.382358 9.037252
C 4.399487 2.980171 7.335212
H 5.080452 3.442192 7.767975
C 4.417226 2.907809 5.912413
C 3.301575 2.259412 5.257224
C 6.459015 3.669101 -1.057731
C 7.638349 4.101992 -0.351771
C 8.309556 2.947020 0.143851
C 7.522145 1.793041 -0.228470
C 6.416878 2.251397 -1.017839
C 5.478079 4.552696 -1.769735
H 5.490090 5.427788 -1.374446
H 4.596625 4.179687 -1.692369
H 5.719183 4.617112 -2.696911
C 8.117880 5.518770 -0.240558
H 8.737764 5.702476 -0.950144
H 8.553187 5.643437 0.605626
H 7.369269 6.116067 -0.307044
C 9.590316 2.927873 0.929594
H 10.332417 2.819005 0.330012
H 9.572337 2.197263 1.552144
H 9.685494 3.754314 1.408293
C 7.882597 0.359032 0.018133
H 7.081497 -0.165206 0.085827
H 8.379753 0.290689 0.836514
H 8.417626 0.033608 -0.709586
C 5.402209 1.359664 -1.682699
H 4.535571 1.770704 -1.636763
H 5.376769 0.511164 -1.233012
H 5.644936 1.227072 -2.601413
C 0.828303 5.035048 5.911204
C 2.060559 5.668838 5.627128
C 2.673094 6.002825 6.866184
C 1.801355 5.590965 7.911826
C 0.677683 4.986319 7.312244
C -0.129910 4.546037 4.864353
H -0.610550 5.290736 4.495658
H -0.750303 3.929532 5.260851
H 0.357803 4.103477 4.165646
C 2.636102 5.894936 4.264771
H 2.687126 5.058257 3.795742
H 3.516951 6.269287 4.348180
H 2.075753 6.502673 3.777610
C 3.996836 6.703766 7.037838
H 4.223894 6.733727 7.969850
H 3.932689 7.597981 6.695738
H 4.676277 6.225279 6.559140
C 1.985562 5.829035 9.386605
H 2.787015 6.336966 9.530457
H 2.053549 4.986218 9.841127
H 1.232357 6.317255 9.727497
C -0.542206 4.457497 8.033919
H -1.169026 4.113836 7.393236
H -0.952742 5.168227 8.533168
H -0.280709 3.755610 8.633501
Ru 5.000381 11.169965 11.114272
Ru 8.898902 10.338459 5.303885
N 4.866260 10.575413 9.173850
H 4.194301 10.113314 8.900653
N 6.798962 11.707692 10.321035
H 7.430005 12.005367 10.823910
C 5.874836 10.774924 6.956846
H 5.183057 10.318013 6.536172
C 5.845611 10.919231 8.332501
C 6.976096 11.588089 9.002196
C 8.045626 12.036482 8.238212
H 8.785018 12.405263 8.666139
C 9.111127 12.427026 6.021208
H 9.879678 12.748339 6.435839
C 9.042942 12.428854 4.609289
H 9.717828 12.825950 4.106413
C 7.952359 11.828203 3.978277
H 7.893567 11.825530 3.051100
C 6.940586 11.227717 4.753140
H 6.259621 10.765696 4.320377
C 6.922847 11.300080 6.175939
C 8.038497 11.948477 6.831128
C 4.881058 10.538787 13.146083
C 3.701724 10.105896 12.440123
C 3.030517 11.260868 11.944500
C 3.817928 12.414847 12.316822
C 4.923195 11.956492 13.106191
C 5.861994 9.655193 13.858087
H 5.849983 8.780100 13.462797
H 6.743448 10.028201 13.780721
H 5.620890 9.590777 14.785263
C 3.222193 8.689118 12.328910
H 2.602309 8.505413 13.038496
H 2.786886 8.564451 11.482725
H 3.970804 8.091822 12.395396
C 1.749757 11.280015 11.158758
H 1.007656 11.388884 11.758340
H 1.767735 12.010625 10.536207
H 1.654578 10.453575 10.680059
C 3.457476 13.848857 12.070219
H 4.258576 14.373095 12.002525
H 2.960320 13.917199 11.251838
H 2.922446 14.174281 12.797938
C 5.937864 12.848225 13.771050
H 6.804502 12.437184 13.725115
H 5.963303 13.696725 13.321364
H 5.695137 12.980816 14.689765
C 10.511770 9.172841 6.177148
C 9.279514 8.539050 6.461224
C 8.666979 8.205064 5.222168
C 9.538717 8.616923 4.176526
C 10.662390 9.221569 4.776108
C 11.469983 9.661852 7.223999
H 11.950623 8.917152 7.592694
H 12.090376 10.278356 6.827501
H 10.982270 10.104412 7.922706
C 8.703971 8.312952 7.823581
H 8.652946 9.149632 8.292609
H 7.823121 7.938601 7.740172
H 9.264320 7.705216 8.310742
C 7.343237 7.504123 5.050513
H 7.116179 7.474162 4.118501
H 7.407384 6.609907 5.392614
H 6.663796 7.982609 5.529212
C 9.354511 8.378853 2.701747
H 8.553058 7.870922 2.557895
H 9.286524 9.221670 2.247225
H 10.107716 7.890634 2.360855
C 11.882278 9.750392 4.054433
H 12.509099 10.094052 4.695116
H 12.292815 9.039662 3.555184
H 11.620782 10.452279 3.454851
