76
Lattice="7.401000 0.000000 0.000000 -1.054109 7.606306 0.000000 -2.882213 -2.848184 14.086790"
N 4.899836 8.905989 -3.514795
N 5.422777 10.501410 -2.047233
C 4.264738 6.649060 1.115392
C 4.248468 8.850683 0.109173
H 4.068670 9.761035 0.177494
C 4.004364 8.016218 1.181600
H 3.657449 8.376553 1.965107
C 5.064642 6.977688 -1.138213
H 5.437474 6.623955 -1.912986
C 5.026379 9.245708 -2.194440
C 3.967233 5.744504 2.252337
C 5.260068 10.012009 -4.231390
C 4.124935 6.140033 3.569029
H 4.426105 7.001006 3.749904
C 3.499996 4.449551 2.032160
H 3.384743 4.153197 1.157934
C 4.820339 6.148482 -0.061700
H 5.028745 5.243466 -0.122555
C 4.762575 8.332692 -1.079612
O 3.052509 3.088469 5.332977
C 5.569896 10.971846 -3.313072
C 5.981026 12.303995 -3.634251
C 5.312136 10.060593 -5.645422
C 3.380964 4.011143 4.373526
C 4.355868 7.683821 -4.111511
H 5.066700 7.056912 -4.261254
H 3.934067 7.895399 -4.947281
H 3.709194 7.297207 -3.516063
C 3.842075 5.283478 4.630328
H 3.966541 5.568785 5.506526
N 5.383791 10.124254 -6.780395
N 6.274344 13.354796 -3.955852
C 3.207409 3.603199 3.065567
H 2.889796 2.748254 2.884975
C 3.403953 3.380188 6.674039
H 4.345820 3.561272 6.726442
H 3.190954 2.629174 7.232158
H 2.913535 4.149883 6.971553
N -1.435158 -4.147867 17.601585
N -1.958099 -5.743288 16.134023
C -0.800060 -1.890938 12.971398
C -0.783790 -4.092561 13.977618
H -0.603992 -5.002913 13.909297
C -0.539686 -3.258097 12.905190
H -0.192771 -3.618431 12.121683
C -1.599964 -2.219566 15.225003
H -1.972795 -1.865833 15.999776
C -1.561701 -4.487586 16.281230
C -0.502555 -0.986382 11.834453
C -1.795390 -5.253887 18.318180
C -0.660257 -1.381911 10.517761
H -0.961427 -2.242884 10.336887
C -0.035318 0.308571 12.054630
H 0.079935 0.604925 12.928856
C -1.355661 -1.390360 14.148490
H -1.564067 -0.485344 14.209345
C -1.297897 -3.574570 15.166402
O 0.412169 1.669653 8.753813
C -2.105218 -6.213724 17.399862
C -2.516348 -7.545873 17.721041
C -1.847458 -5.302471 19.732212
C 0.083714 0.746979 9.713264
C -0.891190 -2.925699 18.198302
H -1.602022 -2.298790 18.348044
H -0.469389 -3.137277 19.034071
H -0.244516 -2.539085 17.602853
C -0.377397 -0.525356 9.456462
H -0.501863 -0.810663 8.580264
N -1.919112 -5.366132 20.867185
N -2.809666 -8.596674 18.042643
C 0.257269 1.154923 11.021223
H 0.574883 2.009868 11.201816
C 0.060725 1.377933 7.412751
H -0.881142 1.196850 7.360348
H 0.273724 2.128948 6.854632
H 0.551143 0.608239 7.115238
