152
Lattice="8.545700 0.000000 0.000000 -0.395788 11.216019 0.000000 -3.109755 -0.756648 12.934935"
F -0.304252 0.142125 9.565513
F -0.049195 1.125941 11.401369
F 1.336027 -0.363738 10.800670
N 2.593909 2.015456 10.345361
O 3.899798 4.471258 8.030137
O 1.654248 3.819948 6.755011
C 3.411875 2.933509 9.802352
C 3.075469 3.544146 8.588020
C 1.892785 3.199653 7.933125
C 1.063122 2.252248 8.500451
H 0.264193 2.001789 8.095976
C 1.473698 1.693758 9.693828
C 4.705551 3.270781 10.553872
C 4.813351 2.453147 11.845942
H 5.642167 2.656236 12.285601
H 4.783897 1.516613 11.634974
H 4.080244 2.673785 12.426592
C 4.735369 4.760971 10.932995
H 4.650793 5.295273 10.139695
H 5.566035 4.964302 11.368514
H 4.006650 4.954995 11.527614
C 5.912945 2.936448 9.662008
H 5.863278 3.448210 8.851376
H 5.904187 1.999959 9.450263
H 6.723833 3.151451 10.128054
C 0.633600 0.652704 10.374206
H 0.825098 3.770846 6.480402
H 3.584170 4.719133 7.334108
F 5.344409 10.317245 3.369421
F 5.089353 9.333430 1.533566
F 3.704130 10.823109 2.134264
N 2.446248 8.443915 2.589574
O 1.140359 5.988113 4.904798
O 3.385909 6.639423 6.179924
C 1.628282 7.525861 3.132582
C 1.964688 6.915224 4.346914
C 3.147372 7.259718 5.001810
C 3.977035 8.207122 4.434484
H 4.775964 8.457581 4.838959
C 3.566459 8.765613 3.241107
C 0.334606 7.188590 2.381063
C 0.226806 8.006223 1.088992
H -0.602010 7.803135 0.649334
H 0.256260 8.942758 1.299961
H 0.959913 7.785586 0.508343
C 0.304788 5.698399 2.001940
H 0.389364 5.164097 2.795239
H -0.525877 5.495069 1.566421
H 1.033507 5.504376 1.407321
C -0.872788 7.522923 3.272926
H -0.823121 7.011161 4.083559
H -0.864030 8.459412 3.484671
H -1.683676 7.307919 2.806881
C 4.406557 9.806666 2.560729
H 4.215059 6.688524 6.454532
H 1.455987 5.740238 5.600827
F 9.080939 0.102385 2.845686
F 9.467460 1.612025 1.400595
F 7.735499 0.414619 1.214332
N 6.575928 2.441382 2.421808
O 5.494738 4.821411 4.866640
O 7.763154 3.911641 5.987064
C 5.783170 3.374623 3.028456
C 6.226996 3.889459 4.224550
C 7.442899 3.438335 4.844133
C 8.204323 2.484912 4.129995
H 9.014896 2.183519 4.471607
C 7.745097 2.011435 2.942051
C 4.468041 3.763176 2.354934
C 3.311814 3.466616 3.321433
H 3.302028 2.529098 3.529944
H 2.479909 3.711618 2.910360
H 3.431473 3.972336 4.128831
C 4.509573 5.261524 2.007890
H 4.674206 5.770279 2.805587
H 3.668475 5.525085 1.628508
H 5.212220 5.424466 1.373690
C 4.227731 2.975048 1.064157
H 4.963381 3.113397 0.463071
H 3.416578 3.278517 0.650627
H 4.152927 2.041114 1.268917
C 8.517799 1.020231 2.116414
H 5.830723 4.992548 5.536152
H 6.341527 2.078300 1.668607
F -4.040781 10.356985 10.089249
F -4.427302 8.847345 11.534340
F -2.695342 10.044751 11.720603
N -1.535771 8.017989 10.513127
O -0.454581 5.637959 8.068295
O -2.722997 6.547730 6.947871
C -0.743012 7.084748 9.906478
C -1.186839 6.569912 8.710385
C -2.402742 7.021036 8.090802
C -3.164166 7.974459 8.804939
H -3.974738 8.275852 8.463328
C -2.704940 8.447936 9.992884
C 0.572117 6.696195 10.580000
C 1.728343 6.992754 9.613502
H 1.738129 7.930273 9.404991
H 2.560248 6.747752 10.024574
H 1.608684 6.487034 8.806103
C 0.530584 5.197847 10.927045
H 0.365951 4.689092 10.129347
H 1.371682 4.934286 11.306426
H -0.172063 5.034905 11.561245
C 0.812426 7.484322 11.870778
H 0.076776 7.345973 12.471864
H 1.623579 7.180853 12.284307
H 0.887230 8.418257 11.666018
C -3.477642 9.439139 10.818521
H -0.790566 5.466823 7.398783
H -1.301370 8.381071 11.266328
C 5.458443 1.182901 6.314835
H 5.573817 0.997584 5.379639
H 6.304459 1.110736 6.762384
H 5.114105 2.072630 6.424782
C 4.499744 0.204236 6.900788
H 4.329020 0.448633 7.823048
H 4.913271 -0.674054 6.902081
C 3.191490 0.120095 6.172551
H 2.771321 0.994414 6.181605
H 3.360889 -0.117421 5.247703
C -0.022497 -1.939550 6.620100
H -0.137872 -1.754232 7.555295
H -0.868514 -1.867384 6.172551
H 0.321840 -2.829278 6.510153
C 0.936201 -0.960885 6.034147
H 1.106925 -1.205282 5.111886
H 0.522674 -0.082595 6.032853
C 2.244456 -0.876743 6.762384
H 2.664624 -1.751063 6.753329
H 2.075056 -0.639227 7.687232
C 5.062655 12.398920 6.314835
H 5.178029 12.213603 5.379639
H 5.908671 12.326755 6.762384
H 4.718317 13.288649 6.424782
C 4.103956 11.420255 6.900788
H 3.933232 11.664652 7.823048
H 4.517483 10.541965 6.902081
C 2.795702 11.336114 6.172551
H 2.375533 12.210433 6.181605
H 2.965101 11.098597 5.247703
C -0.418285 9.276469 6.620100
H -0.533660 9.461786 7.555295
H -1.264302 9.348635 6.172551
H -0.073948 8.386741 6.510153
C 0.540413 10.255134 6.034147
H 0.711137 10.010737 5.111886
H 0.126886 11.133424 6.032853
C 1.848668 10.339276 6.762384
H 2.268836 9.464956 6.753329
H 1.679268 10.576792 7.687232
