96
Lattice="14.185000 0.000000 0.000000 0.000000 4.105000 0.000000 -2.329760 0.000000 15.423029"
O 9.151510 0.015599 4.932439
O 7.693378 0.420763 3.359907
O 6.105470 0.697029 1.742185
H 5.493535 1.006957 2.190070
O 12.921245 2.920708 0.725037
C 8.934440 0.529135 3.844344
C 7.304412 1.220417 2.177732
H 7.196581 2.200280 2.569477
C 8.355932 1.081668 1.122334
H 8.379690 0.165842 0.803540
H 8.144201 1.658420 0.371695
C 9.690757 1.453581 1.680956
C 10.670239 2.022534 0.878958
H 10.497092 2.185502 -0.020050
C 11.901577 2.346828 1.412749
C 12.172084 2.070562 2.758409
H 13.006324 2.272528 3.116994
C 11.205406 1.502430 3.545137
H 11.385093 1.323042 4.440290
C 9.953887 1.190861 3.015356
C 12.699501 3.230635 -0.645762
H 13.491920 3.622252 -1.017920
H 11.970064 3.851722 -0.718713
H 12.483838 2.426876 -1.124339
O 7.986630 2.036901 12.643953
O 6.528497 1.631738 11.071421
O 4.940589 1.355471 9.453700
H 4.328655 1.045544 9.901585
O 11.756364 -0.868207 8.436551
C 7.769560 1.523366 11.555859
C 6.139532 0.832084 9.889246
H 6.031701 -0.147780 10.280991
C 7.191052 0.970833 8.833848
H 7.214810 1.886658 8.515054
H 6.979321 0.394080 8.083209
C 8.525877 0.598920 9.392470
C 9.505359 0.029967 8.590473
H 9.332211 -0.133002 7.691465
C 10.736697 -0.294328 9.124264
C 11.007204 -0.018062 10.469923
H 11.841444 -0.220028 10.828509
C 10.040526 0.550070 11.256652
H 10.220213 0.729459 12.151804
C 8.789007 0.861640 10.726871
C 11.534621 -1.178135 7.065752
H 12.327039 -1.569752 6.693595
H 10.805184 -1.799221 6.992801
H 11.318958 -0.374376 6.587176
O 2.703729 4.089401 10.490590
O 4.161862 3.684238 12.063122
O 5.749770 3.407971 13.680844
H 6.361704 3.098044 13.232959
O -1.066005 1.184293 14.697992
C 2.920799 3.575866 11.578685
C 4.550828 2.884584 13.245297
H 4.658658 1.904720 12.853552
C 3.499307 3.023333 14.300695
H 3.475550 3.939158 14.619489
H 3.711038 2.446580 15.051334
C 2.164482 2.651420 13.742073
C 1.185000 2.082467 14.544070
H 1.358148 1.919498 15.443079
C -0.046337 1.758172 14.010279
C -0.316845 2.034438 12.664620
H -1.151084 1.832472 12.306035
C 0.649834 2.602570 11.877891
H 0.470146 2.781959 10.982739
C 1.901352 2.914140 12.407673
C -0.844262 0.874365 16.068791
H -1.636680 0.482748 16.440949
H -0.114824 0.253279 16.141742
H -0.628599 1.678124 16.547368
O 3.868610 2.068099 2.779076
O 5.326742 2.473263 4.351608
O 6.914650 2.749529 5.969329
H 7.526585 3.059457 5.521444
O 0.098875 4.973208 6.986478
C 4.085680 2.581635 3.867170
C 5.715708 3.272917 5.533783
H 5.823538 4.252780 5.142038
C 4.664188 3.134168 6.589181
H 4.640430 2.218342 6.907975
H 4.875918 3.710920 7.339819
C 3.329362 3.506081 6.030559
C 2.349881 4.075034 6.832556
H 2.523028 4.238002 7.731564
C 1.118543 4.399329 6.298765
C 0.848035 4.123062 4.953106
H 0.013796 4.325028 4.594520
C 1.814714 3.554930 4.166377
H 1.635026 3.375542 3.271224
C 3.066233 3.243361 4.696158
C 0.320619 5.283135 8.357277
H -0.471800 5.674752 8.729434
H 1.050056 5.904222 8.430228
H 0.536282 4.479376 8.835853
