28
Lattice="6.828000 0.000000 0.000000 2.961669 6.559369 0.000000 2.000595 1.838420 6.865951"
C 4.066671 3.993296 1.922123
C 4.095108 3.486992 3.217591
H 4.622086 3.905102 3.888875
C 3.337317 2.356132 3.512689
C 2.564184 1.717068 2.541432
H 2.056499 0.943250 2.755993
C 2.554849 2.237316 1.258598
H 2.032821 1.815866 0.586352
C 3.296909 3.365554 0.941459
H 3.281596 3.710808 0.056987
C 3.354595 1.836481 4.860956
N 3.366084 1.425948 5.930328
O 4.815768 5.103697 1.667465
H 4.654193 5.384922 0.782718
C 7.723593 4.404493 4.943828
C 7.695156 4.910797 3.648361
H 7.168177 4.492688 2.977077
C 8.452946 6.041658 3.353262
C 9.226080 6.680721 4.324519
H 9.733765 7.454539 4.109958
C 9.235415 6.160474 5.607354
H 9.757443 6.581924 6.279599
C 8.493354 5.032235 5.924492
H 8.508668 4.686982 6.808964
C 8.435669 6.561308 2.004995
N 8.424180 6.971842 0.935623
O 6.974496 3.294093 5.198486
H 7.136071 3.012867 6.083233
