148
Lattice="16.927000 0.000000 0.000000 0.000000 4.524400 0.000000 -5.365819 0.000000 18.927095"
O 5.003012 3.606399 10.358988
O 6.303516 1.914274 11.015758
O 5.852216 2.686136 13.671040
N 7.256857 2.592481 13.824350
N 8.793311 2.934073 17.098737
N 9.448270 3.498266 18.013862
C 5.678596 2.930906 11.249129
C 5.596388 3.577443 12.597117
C 7.498874 1.851837 14.891459
C 6.492042 1.210729 15.778762
C 8.931092 1.593494 15.132591
C 9.578184 2.085296 16.254589
C 10.904324 1.752753 16.503291
C 11.574278 0.918453 15.644758
C 10.948988 0.431175 14.512728
C 9.635373 0.760552 14.256266
C 8.653020 4.285964 18.889240
C 9.343660 5.106238 19.763294
C 8.655998 5.874029 20.684286
C 7.282434 5.824713 20.734821
C 6.589306 5.001272 19.871935
C 7.266728 4.227599 18.945265
H 5.086677 3.250329 9.624428
H 6.237132 4.304967 12.635728
H 4.711395 3.957945 12.709544
H 5.613085 1.347366 15.416119
H 6.540149 1.601638 16.653951
H 6.669853 0.269202 15.838193
H 11.336970 2.095250 17.252047
H 12.455336 0.679565 15.826837
H 11.415312 -0.118539 13.924664
H 9.215888 0.427103 13.496911
H 10.271810 5.141528 19.731496
H 9.122942 6.425100 21.270269
H 6.819803 6.346376 21.351655
H 5.660165 4.965981 19.913196
H 6.796481 3.672908 18.364960
O 7.685922 0.918001 0.895441
O 8.986426 2.610126 1.552211
O 8.535125 1.838264 4.207493
N 9.939767 1.931919 4.360803
N 11.476221 1.590327 7.635190
N 12.131180 1.026134 8.550315
C 8.361505 1.593494 1.785582
C 8.279298 0.946957 3.133570
C 10.181784 2.672563 5.427912
C 9.174951 3.313671 6.315214
C 11.614002 2.930906 5.669043
C 12.261093 2.439104 6.791042
C 13.587233 2.771647 7.039744
C 14.257187 3.605947 6.181211
C 13.631898 4.093225 5.049181
C 12.318283 3.763848 4.792719
C 11.335930 0.238436 9.425693
C 12.026569 -0.581838 10.299746
C 11.338908 -1.349629 11.220739
C 9.965343 -1.300313 11.271274
C 9.272215 -0.476872 10.408388
C 9.949637 0.296801 9.481717
H 7.769586 1.274071 0.160880
H 8.920041 0.219433 3.172181
H 7.394304 0.566455 3.245997
H 8.295994 3.177034 5.952571
H 9.223058 2.922762 7.190403
H 9.352763 4.255198 6.374645
H 14.019880 2.429150 7.788499
H 15.138246 3.844835 6.363289
H 14.098222 4.642939 4.461116
H 11.898797 4.097297 4.033364
H 12.954720 -0.617128 10.267949
H 11.805852 -1.900700 11.806722
H 9.502712 -1.821976 11.888108
H 8.343074 -0.441581 10.449649
H 9.479391 0.851492 8.901413
O 6.558169 0.918001 8.568106
O 5.257664 2.610126 7.911336
O 5.708965 1.838264 5.256054
N 4.304323 1.931919 5.102745
N 2.767870 1.590327 1.828357
N 2.112910 1.026134 0.913232
C 5.882585 1.593494 7.677965
C 5.964792 0.946957 6.329978
C 4.062307 2.672563 4.035635
C 5.069139 3.313671 3.148333
C 2.630089 2.930906 3.794504
C 1.982997 2.439104 2.672506
C 0.656857 2.771647 2.423804
C -0.013097 3.605947 3.282337
C 0.612193 4.093225 4.414366
C 1.925807 3.763848 4.670828
C 2.908160 0.238436 0.037854
C 2.217521 -0.581838 -0.836199
C 2.905182 -1.349629 -1.757191
C 4.278747 -1.300313 -1.807727
C 4.971875 -0.476872 -0.944841
C 4.294453 0.296801 -0.018170
H 6.474504 1.274071 9.302667
H 5.324049 0.219433 6.291366
H 6.849786 0.566455 6.217551
H 5.948096 3.177034 3.510976
H 5.021032 2.922762 2.273144
H 4.891327 4.255198 3.088902
H 0.224210 2.429150 1.675048
H -0.894156 3.844835 3.100258
H 0.145869 4.642939 5.002431
H 2.345293 4.097297 5.430183
H 1.289370 -0.617128 -0.804402
H 2.438238 -1.900700 -2.343174
H 4.741378 -1.821976 -2.424561
H 5.901016 -0.441581 -0.986102
H 4.764699 0.851492 0.562135
O 3.875259 3.606399 18.031654
O 2.574754 1.914274 17.374884
O 3.026055 2.686136 14.719601
N 1.621414 2.592481 14.566292
N 0.084960 2.934073 11.291905
N -0.569999 3.498266 10.376780
C 3.199675 2.930906 17.141513
C 3.281882 3.577443 15.793525
C 1.379397 1.851837 13.499182
C 2.386229 1.210729 12.611880
C -0.052821 1.593494 13.258051
C -0.699913 2.085296 12.136053
C -2.026053 1.752753 11.887351
C -2.696007 0.918453 12.745884
C -2.070717 0.431175 13.877914
C -0.757103 0.760552 14.134376
C 0.225251 4.285964 9.501401
C -0.465389 5.106238 8.627348
C 0.222272 5.874029 7.706356
C 1.595837 5.824713 7.655820
C 2.288965 5.001272 8.518707
C 1.611543 4.227599 9.445377
H 3.791594 3.250329 18.766214
H 2.641139 4.304967 15.754914
H 4.166876 3.957945 15.681098
H 3.265186 1.347366 12.974523
H 2.338122 1.601638 11.736691
H 2.208417 0.269202 12.552449
H -2.458700 2.095250 11.138595
H -3.577065 0.679565 12.563805
H -2.537041 -0.118539 14.465978
H -0.337617 0.427103 14.893731
H -1.393540 5.141528 8.659146
H -0.244672 6.425100 7.120373
H 2.058468 6.346376 7.038986
H 3.218106 4.965981 8.477446
H 2.081790 3.672908 10.025682
