70
Lattice="8.058200 0.000000 0.000000 0.357156 9.911667 0.000000 0.699415 4.619432 8.791338"
N 9.846368 5.523494 4.387405
C 9.125336 4.550825 4.972469
C 7.921433 4.094875 4.441824
C 7.444713 4.640389 3.249630
C 8.201470 5.640484 2.639424
C 9.386780 6.062191 3.239960
C 10.234421 7.130757 2.638017
C 11.581305 7.226572 2.992396
C 12.387924 8.234192 2.470454
C 11.849188 9.166325 1.591320
C 10.517603 9.066892 1.213644
C 9.715322 8.052955 1.724509
C 6.172621 4.174898 2.640654
C 5.065569 3.875540 3.441721
C 3.874337 3.455245 2.871603
C 3.779736 3.320403 1.486967
C 4.883330 3.591791 0.674735
C 6.070668 4.017311 1.255931
C 2.530231 2.926197 0.886519
N 1.529302 2.627115 0.403347
C 9.702156 3.966259 6.232004
H 7.431468 3.400253 4.894138
H 7.883759 6.042697 1.811895
H 11.948170 6.584312 3.587745
H 13.311859 8.289445 2.724436
H 12.389604 9.872962 1.231666
H 10.147486 9.695909 0.600448
H 8.803154 8.009021 1.453208
H 5.132519 3.970391 4.383361
H 3.118116 3.281978 3.439172
H 4.832787 3.482418 -0.270773
H 6.827077 4.182447 0.693637
H 9.088104 3.347369 6.664714
H 9.899041 4.680412 6.873947
H 10.538010 3.491773 6.051078
N -0.731597 9.007605 4.403933
C -0.010565 9.980274 3.818869
C 1.193338 10.436224 4.349515
C 1.670058 9.890710 5.541708
C 0.913301 8.890615 6.151915
C -0.272009 8.468908 5.551378
C -1.119650 7.400342 6.153321
C -2.466534 7.304527 5.798943
C -3.273153 6.296907 6.320884
C -2.734417 5.364774 7.200018
C -1.402832 5.464208 7.577694
C -0.600551 6.478144 7.066829
C 2.942150 10.356201 6.150684
C 4.049202 10.655560 5.349617
C 5.240434 11.075854 5.919736
C 5.335035 11.210697 7.304371
C 4.231441 10.939308 8.116603
C 3.044103 10.513788 7.535408
C 6.584540 11.604903 7.904820
N 7.585469 11.903984 8.387992
C -0.587385 10.564840 2.559334
H 1.683303 11.130846 3.897200
H 1.231012 8.488402 6.979443
H -2.833399 7.946788 5.203593
H -4.197088 6.241655 6.066903
H -3.274833 4.658137 7.559672
H -1.032715 4.835190 8.190890
H 0.311617 6.522078 7.338130
H 3.982252 10.560708 4.407977
H 5.996655 11.249121 5.352167
H 4.281984 11.048681 9.062112
H 2.287694 10.348652 8.097702
H 0.026667 11.183730 2.126625
H -0.784270 9.850688 1.917391
H -1.423239 11.039327 2.740260
