192
Lattice="9.928000 0.000000 0.000000 0.000000 10.295000 0.000000 0.000000 0.000000 17.911000"
O 10.544330 5.308102 19.026855
N 8.364340 4.591570 18.962555
N 8.499361 3.094677 13.185362
C 8.056572 3.363377 22.509828
H 7.700157 4.133443 22.938618
C 8.264067 2.206219 23.241134
H 8.034730 2.182540 24.161939
C 8.802165 1.091270 22.639325
H 8.949099 0.298555 23.142803
C 9.125818 1.133480 21.299224
H 9.496132 0.366502 20.877062
C 8.915344 2.280343 20.572395
H 9.152623 2.300933 19.651949
C 8.362354 3.410734 21.158981
C 8.108198 4.683196 20.377882
H 7.164045 4.949836 20.509886
H 8.677072 5.401787 20.753476
C 9.583498 4.859240 18.411612
C 9.483226 4.491709 16.985360
C 10.435321 4.514358 15.985747
H 11.306999 4.847916 16.161095
C 10.109682 4.046965 14.728753
H 10.758974 4.077850 14.036851
C 8.822021 3.522949 14.451490
C 7.868933 3.501330 15.496597
H 6.994276 3.164683 15.342563
C 8.223362 3.973870 16.735680
C 7.402317 3.998578 18.016675
H 7.206735 3.059674 18.296087
C 9.517974 3.003052 12.152076
H 9.998489 3.854448 12.091716
H 9.093055 2.805388 11.291094
H 10.147409 2.286520 12.376501
C 7.335799 2.247399 12.990669
H 6.536595 2.708615 13.320411
H 7.455928 1.409386 13.483401
H 7.229570 2.053853 12.036192
C 6.063030 6.024634 17.356475
H 6.845356 6.384959 16.954553
C 4.872662 6.751461 17.336415
H 4.842878 7.602858 16.916940
C 3.739878 6.235682 17.924791
H 2.928760 6.728812 17.909209
C 3.785546 5.002341 18.537527
H 3.005206 4.644075 18.942674
C 4.961022 4.288897 18.562781
H 4.984849 3.445737 18.999989
C 6.108698 4.774821 17.963479
O 4.347670 4.986898 10.071355
N 6.527660 5.703430 10.007055
N 6.392639 7.200323 4.229862
C 6.835428 6.931624 13.554328
H 7.191843 6.161558 13.983118
C 6.627933 8.088781 14.285634
H 6.857270 8.112460 15.206439
C 6.089835 9.203730 13.683825
H 5.942901 9.996445 14.187303
C 5.766182 9.161520 12.343724
H 5.395868 9.928498 11.921562
C 5.976656 8.014658 11.616895
H 5.739377 7.994068 10.696449
C 6.529646 6.884267 12.203481
C 6.783802 5.611805 11.422382
H 7.727955 5.345164 11.554386
H 6.214928 4.893214 11.797976
C 5.308502 5.435760 9.456112
C 5.408774 5.803292 8.029860
C 4.456679 5.780642 7.030247
H 3.585001 5.447084 7.205595
C 4.782318 6.248036 5.773253
H 4.133026 6.217150 5.081351
C 6.069979 6.772051 5.495990
C 7.023067 6.793671 6.541097
H 7.897724 7.130317 6.387063
C 6.668638 6.321130 7.780180
C 7.489683 6.296422 9.061175
H 7.685265 7.235326 9.340587
C 5.374026 7.291949 3.196576
H 4.893511 6.440552 3.136216
H 5.798945 7.489613 2.335594
H 4.744591 8.008481 3.421001
C 7.556201 8.047601 4.035169
H 8.355405 7.586385 4.364911
H 7.436072 8.885614 4.527901
H 7.662430 8.241148 3.080692
C 8.828970 4.270366 8.400975
H 8.046644 3.910041 7.999053
C 10.019338 3.543539 8.380915
H 10.049122 2.692143 7.961440
C 11.152122 4.059319 8.969291
H 11.963240 3.566188 8.953709
C 11.106454 5.292660 9.582027
H 11.886794 5.650926 9.987174
C 9.930978 6.006103 9.607281
H 9.907151 6.849264 10.044489
C 8.783302 5.520179 9.007979
O -0.616330 10.455602 7.839645
N 1.563660 9.739070 7.903945
N 1.428639 8.242177 13.681138
C 1.871428 8.510877 4.356672
H 2.227843 9.280943 3.927882
C 1.663933 7.353719 3.625366
H 1.893270 7.330040 2.704561
C 1.125835 6.238770 4.227175
H 0.978901 5.446055 3.723697
C 0.802182 6.280979 5.567276
H 0.431868 5.514002 5.989438
C 1.012656 7.427843 6.294105
H 0.775377 7.448433 7.214551
C 1.565646 8.558234 5.707519
C 1.819802 9.830695 6.488618
H 2.763955 10.097336 6.356614
H 1.250928 10.549286 6.113024
C 0.344502 10.006740 8.454888
C 0.444774 9.639209 9.881140
C -0.507321 9.661857 10.880753
H -1.378999 9.995416 10.705405
C -0.181682 9.194465 12.137747
H -0.830974 9.225350 12.829649
C 1.105979 8.670449 12.415010
C 2.059067 8.648829 11.369903
H 2.933724 8.312183 11.523937
C 1.704638 9.121370 10.130820
C 2.525683 9.146078 8.849825
H 2.721265 8.207174 8.570414
C 0.410026 8.150552 14.714424
H -0.070489 9.001948 14.774784
H 0.834945 7.952888 15.575406
H -0.219409 7.434020 14.489999
C 2.592201 7.394899 13.875831
H 3.391405 7.856115 13.546089
H 2.472072 6.556886 13.383099
H 2.698430 7.201353 14.830308
C 3.864970 11.172134 9.510025
H 3.082644 11.532459 9.911947
C 5.055338 11.898961 9.530085
H 5.085122 12.750357 9.949561
C 6.188122 11.383181 8.941709
H 6.999240 11.876312 8.957291
C 6.142454 10.149840 8.328973
H 6.922794 9.791574 7.923826
C 4.966978 9.436397 8.303719
H 4.943151 8.593236 7.866511
C 3.819302 9.922321 8.903021
O 5.580330 -0.160602 -1.115855
N 3.400340 0.555930 -1.051555
N 3.535361 2.052823 4.725638
C 3.092572 1.784123 -4.598828
H 2.736157 1.014057 -5.027618
C 3.300067 2.941281 -5.330134
H 3.070730 2.964960 -6.250939
C 3.838165 4.056230 -4.728325
H 3.985099 4.848945 -5.231803
C 4.161818 4.014020 -3.388224
H 4.532132 4.780998 -2.966062
C 3.951344 2.867158 -2.661395
H 4.188623 2.846568 -1.740949
C 3.398354 1.736766 -3.247981
C 3.144198 0.464304 -2.466882
H 2.200045 0.197664 -2.598886
H 3.713072 -0.254287 -2.842476
C 4.619498 0.288260 -0.500612
C 4.519226 0.655792 0.925640
C 5.471321 0.633143 1.925253
H 6.342999 0.299585 1.749905
C 5.145682 1.100536 3.182247
H 5.794974 1.069651 3.874149
C 3.858021 1.624551 3.459510
C 2.904933 1.646170 2.414403
H 2.030276 1.982817 2.568437
C 3.259362 1.173630 1.175320
C 2.438317 1.148922 -0.105675
H 2.242735 2.087826 -0.385086
C 4.553974 2.144449 5.758924
H 5.034489 1.293052 5.819284
H 4.129055 2.342113 6.619906
H 5.183409 2.860981 5.534499
C 2.371799 2.900102 4.920331
H 1.572595 2.438886 4.590589
H 2.491928 3.738115 4.427599
H 2.265570 3.093648 5.874808
C 1.099030 -0.877134 0.554525
H 1.881356 -1.237459 0.956447
C -0.091338 -1.603961 0.574585
H -0.121122 -2.455357 0.994061
C -1.224122 -1.088181 -0.013791
H -2.035240 -1.581312 0.001791
C -1.178454 0.145159 -0.626527
H -1.958794 0.503425 -1.031674
C -0.002978 0.858603 -0.651781
H 0.020849 1.701763 -1.088989
C 1.144698 0.372679 -0.052479
