128
Lattice="7.044100 0.000000 0.000000 0.000000 9.738000 0.000000 0.000000 0.000000 17.841000"
O 2.323144 1.758683 10.706384
O 1.207359 1.800556 6.026690
N 1.734257 0.362254 8.397759
C 1.033369 -1.558080 9.751891
C 0.825569 -2.092696 10.968647
C 1.111559 -1.304892 12.122960
C 1.572243 -0.033109 12.017698
C 1.830057 0.449896 10.784885
C 1.574356 -0.256109 9.568128
C 1.785679 1.767447 8.378134
C 2.089984 2.473452 9.557424
C 1.988549 3.892279 9.514605
C 1.804698 4.540829 8.290713
C 1.498280 3.807558 7.152457
C 1.560268 2.472478 7.227389
C 2.448529 -1.514259 6.950854
C 2.688029 -2.038163 5.643108
C 2.416831 -1.362346 4.547671
C 1.874435 -0.054533 4.711808
C 1.682131 0.522931 5.969599
C 1.944172 -0.274612 7.086445
H 0.786826 -2.026478 9.009705
H 0.543805 -2.964247 11.013249
H 1.005193 -1.670067 12.993600
H 1.863869 0.437236 12.752747
H 2.223822 4.327567 10.406655
H 1.807516 5.513656 8.381702
H 1.370782 4.290563 6.372805
H 2.602091 -2.118015 7.791165
H 3.084611 -2.974959 5.502164
H 2.627449 -1.752840 3.641348
H 1.811743 0.530721 3.889338
O 1.198906 6.627683 19.626884
O 2.314691 6.669556 14.947190
N 1.787793 5.231254 17.318259
C 2.488681 3.310920 18.672391
C 2.696481 2.776304 19.889147
C 2.410491 3.564108 21.043460
C 1.949807 4.835891 20.938198
C 1.691993 5.318896 19.705385
C 1.947694 4.612891 18.488628
C 1.736371 6.636447 17.298634
C 1.432066 7.342452 18.477924
C 1.533501 8.761279 18.435105
C 1.717352 9.409829 17.211213
C 2.023770 8.676558 16.072957
C 1.961782 7.341478 16.147889
C 1.073521 3.354741 15.871354
C 0.834021 2.830837 14.563608
C 1.105219 3.506654 13.468171
C 1.647615 4.814467 13.632308
C 1.839919 5.391931 14.890099
C 1.577878 4.594388 16.006945
H 2.735224 2.842522 17.930205
H 2.978245 1.904753 19.933749
H 2.516857 3.198933 21.914100
H 1.658181 5.306236 21.673247
H 1.298228 9.196567 19.327155
H 1.714534 10.382656 17.302202
H 2.151268 9.159563 15.293305
H 0.919959 2.750985 16.711665
H 0.437439 1.894041 14.422664
H 0.894601 3.116160 12.561848
H 1.710307 5.399721 12.809838
O 5.845194 3.110317 10.706384
O 4.729409 3.068444 6.026690
N 5.256307 4.506746 8.397759
C 4.555419 6.427080 9.751891
C 4.347619 6.961696 10.968647
C 4.633609 6.173892 12.122960
C 5.094293 4.902109 12.017698
C 5.352107 4.419104 10.784885
C 5.096406 5.125109 9.568128
C 5.307729 3.101553 8.378134
C 5.612034 2.395548 9.557424
C 5.510599 0.976721 9.514605
C 5.326748 0.328171 8.290713
C 5.020330 1.061442 7.152457
C 5.082318 2.396522 7.227389
C 5.970579 6.383259 6.950854
C 6.210079 6.907163 5.643108
C 5.938881 6.231346 4.547671
C 5.396485 4.923533 4.711808
C 5.204181 4.346069 5.969599
C 5.466222 5.143612 7.086445
H 4.308876 6.895478 9.009705
H 4.065855 7.833247 11.013249
H 4.527243 6.539067 12.993600
H 5.385919 4.431764 12.752747
H 5.745872 0.541433 10.406655
H 5.329566 -0.644656 8.381702
H 4.892832 0.578437 6.372805
H 6.124141 6.987015 7.791165
H 6.606661 7.843959 5.502164
H 6.149499 6.621840 3.641348
H 5.333793 4.338279 3.889338
O 4.720956 7.979317 19.626884
O 5.836741 7.937444 14.947190
N 5.309843 9.375746 17.318259
C 6.010731 11.296080 18.672391
C 6.218531 11.830696 19.889147
C 5.932541 11.042892 21.043460
C 5.471857 9.771109 20.938198
C 5.214043 9.288104 19.705385
C 5.469744 9.994109 18.488628
C 5.258421 7.970553 17.298634
C 4.954116 7.264548 18.477924
C 5.055551 5.845721 18.435105
C 5.239402 5.197171 17.211213
C 5.545820 5.930442 16.072957
C 5.483832 7.265522 16.147889
C 4.595571 11.252259 15.871354
C 4.356071 11.776163 14.563608
C 4.627269 11.100346 13.468171
C 5.169665 9.792533 13.632308
C 5.361969 9.215069 14.890099
C 5.099928 10.012612 16.006945
H 6.257274 11.764478 17.930205
H 6.500295 12.702247 19.933749
H 6.038907 11.408067 21.914100
H 5.180231 9.300764 21.673247
H 4.820278 5.410433 19.327155
H 5.236584 4.224344 17.302202
H 5.673318 5.447437 15.293305
H 4.442009 11.856015 16.711665
H 3.959489 12.712959 14.422664
H 4.416651 11.490840 12.561848
H 5.232357 9.207279 12.809838
