176
Lattice="11.006000 0.000000 0.000000 0.000000 9.632000 0.000000 -3.150598 0.000000 16.133244"
O 3.134633 -2.216034 9.346956
C 2.540925 -1.244454 8.583531
O 2.128227 -1.578877 7.500184
C 2.455589 0.076960 9.150131
H 2.032563 0.739738 8.652259
C 2.952781 0.410901 10.360447
C 2.915965 1.882960 10.806531
H 3.815427 2.228845 10.625355
C 2.636952 2.233661 12.265138
C 3.518466 3.060086 12.948542
H 4.316428 3.309555 12.540371
C 3.237369 3.521459 14.222262
H 3.837029 4.075299 14.668346
C 2.061707 3.147738 14.815158
H 1.857620 3.454035 15.668607
C 1.175876 2.319386 14.154986
H 0.385897 2.068954 14.576386
C 1.443282 1.851270 12.871909
C 0.448486 1.025808 12.101869
H -0.229428 0.694467 12.711383
H 0.902360 0.259101 11.717575
C -0.225594 1.814669 10.990289
H -0.723539 1.179920 10.451116
H -0.877667 2.398368 11.409430
C 0.587523 2.664308 10.039557
C -0.151096 3.464919 9.172233
H -1.079208 3.450182 9.234669
C 0.431002 4.274682 8.230536
H -0.096411 4.782288 7.656838
C 1.800432 4.326694 8.144546
H 2.211912 4.877645 7.519705
C 2.552973 3.555556 8.992993
H 3.480062 3.598515 8.932977
C 1.984098 2.715357 9.934045
C 3.613576 -0.640143 11.133713
C 4.196015 -0.484201 12.391622
H 4.209422 0.359274 12.783983
C 4.753389 -1.552678 13.070025
H 5.127215 -1.424573 13.911697
C 4.756700 -2.814181 12.496811
H 5.126629 -3.533018 12.956609
C 4.215668 -3.002776 11.256810
H 4.223346 -3.846058 10.864127
C 3.656844 -1.926593 10.589216
O -2.357531 2.599966 14.852910
C -1.763822 3.571546 15.616335
O -1.351125 3.237123 16.699683
C -1.678487 4.892960 15.049736
H -1.255461 5.555738 15.547608
C -2.175679 5.226901 13.839420
C -2.138862 6.698960 13.393335
H -3.038325 7.044845 13.574512
C -1.859850 7.049661 11.934729
C -2.741364 7.876086 11.251325
H -3.539326 8.125555 11.659496
C -2.460267 8.337459 9.977605
H -3.059927 8.891299 9.531521
C -1.284604 7.963738 9.384708
H -1.080517 8.270035 8.531260
C -0.398774 7.135386 10.044881
H 0.391206 6.884954 9.623480
C -0.666180 6.667270 11.327958
C 0.328616 5.841808 12.097997
H 1.006531 5.510467 11.488483
H -0.125257 5.075101 12.482291
C 1.002696 6.630669 13.209578
H 1.500642 5.995920 13.748751
H 1.654769 7.214368 12.790436
C 0.189579 7.480308 14.160310
C 0.928198 8.280919 15.027633
H 1.856310 8.266182 14.965197
C 0.346101 9.090682 15.969331
H 0.873514 9.598288 16.543029
C -1.023330 9.142694 16.055321
H -1.434810 9.693645 16.680161
C -1.775870 8.371556 15.206873
H -2.702959 8.414515 15.266889
C -1.206996 7.531357 14.265821
C -2.836473 4.175857 13.066153
C -3.418913 4.331799 11.808244
H -3.432319 5.175274 11.415884
C -3.976286 3.263322 11.129841
H -4.350113 3.391427 10.288170
C -3.979598 2.001819 11.703055
H -4.349526 1.282982 11.243258
C -3.438566 1.813224 12.943057
H -3.446244 0.969942 13.335740
C -2.879742 2.889407 13.610650
O 4.720768 11.848034 6.786288
C 5.314477 10.876454 7.549713
O 5.727175 11.210877 8.633060
C 5.399812 9.555040 6.983113
H 5.822838 8.892262 7.480985
C 4.902620 9.221099 5.772798
C 4.939437 7.749040 5.326713
H 4.039975 7.403155 5.507890
C 5.218449 7.398339 3.868107
C 4.336935 6.571914 3.184702
H 3.538974 6.322445 3.592874
C 4.618033 6.110541 1.910983
H 4.018372 5.556701 1.464899
C 5.793695 6.484262 1.318086
H 5.997782 6.177965 0.464637
C 6.679526 7.312614 1.978258
H 7.469505 7.563046 1.556858
C 6.412119 7.780730 3.261335
C 7.406916 8.606192 4.031375
H 8.084830 8.937533 3.421861
H 6.953042 9.372899 4.415669
C 8.080995 7.817331 5.142956
H 8.578941 8.452080 5.682129
H 8.733069 7.233632 4.723814
C 7.267878 6.967692 6.093688
C 8.006497 6.167081 6.961011
H 8.934609 6.181818 6.898575
C 7.424400 5.357318 7.902708
H 7.951813 4.849712 8.476407
C 6.054970 5.305306 7.988699
H 5.643489 4.754355 8.613539
C 5.302429 6.076444 7.140251
H 4.375340 6.033485 7.200267
C 5.871303 6.916643 6.199199
C 4.241826 10.272143 4.999531
C 3.659387 10.116201 3.741622
H 3.645980 9.272726 3.349262
C 3.102013 11.184678 3.063219
H 2.728186 11.056573 2.221548
C 3.098702 12.446181 3.636433
H 2.728773 13.165018 3.176636
C 3.639734 12.634776 4.876434
H 3.632056 13.478058 5.269118
C 4.198557 11.558593 5.544028
O 10.212932 7.032034 1.280334
C 9.619224 6.060454 0.516909
O 9.206526 6.394877 -0.566438
C 9.533889 4.739040 1.083509
H 9.110862 4.076262 0.585637
C 10.031081 4.405099 2.293825
C 9.994264 2.933040 2.739909
H 10.893726 2.587155 2.558733
C 9.715252 2.582339 4.198516
C 10.596766 1.755914 4.881920
H 11.394727 1.506445 4.473749
C 10.315668 1.294541 6.155639
H 10.915329 0.740701 6.601724
C 9.140006 1.668262 6.748536
H 8.935919 1.361965 7.601985
C 8.254175 2.496614 6.088364
H 7.464196 2.747046 6.509764
C 8.521581 2.964730 4.805287
C 7.526785 3.790192 4.035247
H 6.848871 4.121533 4.644761
H 7.980659 4.556899 3.650953
C 6.852706 3.001331 2.923667
H 6.354760 3.636080 2.384494
H 6.200632 2.417632 3.342808
C 7.665822 2.151692 1.972934
C 6.927204 1.351081 1.105611
H 5.999091 1.365818 1.168047
C 7.509301 0.541318 0.163914
H 6.981888 0.033712 -0.409784
C 8.878731 0.489306 0.077924
H 9.290212 -0.061645 -0.546917
C 9.631272 1.260444 0.926371
H 10.558361 1.217485 0.866355
C 9.062397 2.100643 1.867423
C 10.691875 5.456143 3.067091
C 11.274314 5.300201 4.325000
H 11.287721 4.456726 4.717361
C 11.831688 6.368678 5.003403
H 12.205514 6.240573 5.845074
C 11.834999 7.630181 4.430189
H 12.204928 8.349018 4.889986
C 11.293967 7.818776 3.190188
H 11.301645 8.662058 2.797505
C 10.735143 6.742593 2.522594
