182
Lattice="8.163900 0.000000 0.000000 0.000000 5.987000 0.000000 -4.000424 0.000000 15.831594"
Cl 6.331120 2.734383 6.019331
Cl 7.501987 5.222580 6.915240
Cl 5.288164 5.253054 5.064685
C 6.019208 4.419603 6.429527
H 5.408770 4.454328 7.090971
Cl 3.914519 -0.259117 1.896467
Cl 2.743651 2.229080 1.000557
Cl 4.957475 2.259554 2.851112
C 4.226431 1.426103 1.486270
H 4.836868 1.460828 0.824826
Cl -2.167643 3.252617 9.812264
Cl -3.338511 0.764420 8.916354
Cl -1.124687 0.733946 10.766909
C -1.855731 1.567397 9.402067
H -1.245294 1.532672 8.740623
Cl 0.248958 6.246117 13.935128
Cl 1.419825 3.757920 14.831038
Cl -0.793998 3.727446 12.980483
C -0.062954 4.560897 14.345324
H -0.673392 4.526172 15.006768
O 3.088237 4.386076 7.942078
C 2.328512 4.681235 10.638515
H 2.040739 5.537376 10.258873
H 3.308247 4.650103 10.667328
H 1.972267 4.590832 11.547565
C 1.814546 3.551488 9.780917
H 2.066170 2.692354 10.203463
H 0.825007 3.595792 9.758595
C 2.323994 3.560469 8.381879
O 1.075239 1.600924 7.889517
C 1.834964 1.305765 5.193080
H 2.122738 0.449624 5.572721
H 0.855230 1.336897 5.164266
H 2.191209 1.396168 4.284029
C 2.348931 2.435512 6.050677
H 2.097307 3.294646 5.628132
H 3.338469 2.391208 6.073000
C 1.839483 2.426531 7.449715
O -1.006499 1.392576 -0.026280
C -0.246774 1.687735 -2.722718
H 0.040999 2.543876 -2.343076
H -1.226508 1.656603 -2.751531
H 0.109471 1.597332 -3.631768
C 0.267192 0.557988 -1.865120
H 0.015569 -0.301146 -2.287665
H 1.256731 0.602292 -1.842798
C -0.242256 0.566969 -0.466082
O 1.006499 -1.392576 0.026280
C 0.246774 -1.687735 2.722718
H -0.040999 -2.543876 2.343076
H 1.226508 -1.656603 2.751531
H -0.109471 -1.597332 3.631768
C -0.267192 -0.557988 1.865120
H -0.015569 0.301146 2.287665
H -1.256731 -0.602292 1.842798
C 0.242256 -0.566969 0.466082
O -5.006923 1.392576 15.805314
C -4.247197 1.687735 13.108877
H -3.959424 2.543876 13.488518
H -5.226932 1.656603 13.080063
H -3.890953 1.597332 12.199827
C -3.733231 0.557988 13.966474
H -3.984855 -0.301146 13.543929
H -2.743692 0.602292 13.988797
C -4.242679 0.566969 15.365512
O -2.993924 -1.392576 15.857875
C -3.753650 -1.687735 18.554312
H -4.041423 -2.543876 18.174670
H -2.773915 -1.656603 18.583126
H -4.109895 -1.597332 19.463362
C -4.267616 -0.557988 17.696715
H -4.015992 0.301146 18.119260
H -5.257155 -0.602292 17.674392
C -3.758168 -0.566969 16.297677
O -1.006499 7.379576 -0.026280
C -0.246774 7.674735 -2.722718
H 0.040999 8.530876 -2.343076
H -1.226508 7.643603 -2.751531
H 0.109471 7.584332 -3.631768
C 0.267192 6.544988 -1.865120
H 0.015569 5.685854 -2.287665
H 1.256731 6.589292 -1.842798
C -0.242256 6.553969 -0.466082
O 1.006499 4.594424 0.026280
C 0.246774 4.299265 2.722718
H -0.040999 3.443124 2.343076
H 1.226508 4.330397 2.751531
H -0.109471 4.389668 3.631768
C -0.267192 5.429012 1.865120
H -0.015569 6.288146 2.287665
H -1.256731 5.384708 1.842798
C 0.242256 5.420031 0.466082
O -5.006923 7.379576 15.805314
C -4.247197 7.674735 13.108877
H -3.959424 8.530876 13.488518
H -5.226932 7.643603 13.080063
H -3.890953 7.584332 12.199827
C -3.733231 6.544988 13.966474
H -3.984855 5.685854 13.543929
H -2.743692 6.589292 13.988797
C -4.242679 6.553969 15.365512
O -2.993924 4.594424 15.857875
C -3.753650 4.299265 18.554312
H -4.041423 3.443124 18.174670
H -2.773915 4.330397 18.583126
H -4.109895 4.389668 19.463362
C -4.267616 5.429012 17.696715
H -4.015992 6.288146 18.119260
H -5.257155 5.384708 17.674392
C -3.758168 5.420031 16.297677
O 7.157401 1.392576 -0.026280
C 7.917126 1.687735 -2.722718
H 8.204899 2.543876 -2.343076
H 6.937392 1.656603 -2.751531
H 8.273371 1.597332 -3.631768
C 8.431092 0.557988 -1.865120
H 8.179469 -0.301146 -2.287665
H 9.420631 0.602292 -1.842798
C 7.921644 0.566969 -0.466082
O 9.170399 -1.392576 0.026280
C 8.410674 -1.687735 2.722718
H 8.122901 -2.543876 2.343076
H 9.390408 -1.656603 2.751531
H 8.054429 -1.597332 3.631768
C 7.896708 -0.557988 1.865120
H 8.148331 0.301146 2.287665
H 6.907169 -0.602292 1.842798
C 8.406156 -0.566969 0.466082
O 3.156977 1.392576 15.805314
C 3.916703 1.687735 13.108877
H 4.204476 2.543876 13.488518
H 2.936968 1.656603 13.080063
H 4.272947 1.597332 12.199827
C 4.430669 0.557988 13.966474
H 4.179045 -0.301146 13.543929
H 5.420208 0.602292 13.988797
C 3.921221 0.566969 15.365512
O 5.169976 -1.392576 15.857875
C 4.410250 -1.687735 18.554312
H 4.122477 -2.543876 18.174670
H 5.389985 -1.656603 18.583126
H 4.054005 -1.597332 19.463362
C 3.896284 -0.557988 17.696715
H 4.147908 0.301146 18.119260
H 2.906745 -0.602292 17.674392
C 4.405732 -0.566969 16.297677
O 7.157401 7.379576 -0.026280
C 7.917126 7.674735 -2.722718
H 8.204899 8.530876 -2.343076
H 6.937392 7.643603 -2.751531
H 8.273371 7.584332 -3.631768
C 8.431092 6.544988 -1.865120
H 8.179469 5.685854 -2.287665
H 9.420631 6.589292 -1.842798
C 7.921644 6.553969 -0.466082
O 9.170399 4.594424 0.026280
C 8.410674 4.299265 2.722718
H 8.122901 3.443124 2.343076
H 9.390408 4.330397 2.751531
H 8.054429 4.389668 3.631768
C 7.896708 5.429012 1.865120
H 8.148331 6.288146 2.287665
H 6.907169 5.384708 1.842798
C 8.406156 5.420031 0.466082
O 3.156977 7.379576 15.805314
C 3.916703 7.674735 13.108877
H 4.204476 8.530876 13.488518
H 2.936968 7.643603 13.080063
H 4.272947 7.584332 12.199827
C 4.430669 6.544988 13.966474
H 4.179045 5.685854 13.543929
H 5.420208 6.589292 13.988797
C 3.921221 6.553969 15.365512
O 5.169976 4.594424 15.857875
C 4.410250 4.299265 18.554312
H 4.122477 3.443124 18.174670
H 5.389985 4.330397 18.583126
H 4.054005 4.389668 19.463362
C 3.896284 5.429012 17.696715
H 4.147908 6.288146 18.119260
H 2.906745 5.384708 17.674392
C 4.405732 5.420031 16.297677
