92
Lattice="7.845000 0.000000 0.000000 0.000000 6.462000 0.000000 -1.049549 0.000000 18.890867"
O 0.194202 0.882709 7.730143
O -1.951225 3.905633 5.100534
O 2.599602 3.576717 10.975594
O 3.771137 1.905644 12.566205
O 4.495825 3.479787 13.854562
N -0.992249 2.152492 6.196204
N 0.232753 3.192228 7.699917
N 1.027559 3.318883 8.799366
N 3.890272 3.076558 12.864680
C -0.136092 1.938600 7.278651
C -1.229385 3.463632 5.960068
C -0.421851 4.248119 6.957506
C 1.340455 4.508537 9.154514
C 2.181066 4.693997 10.304968
C 3.331608 4.046504 12.005146
C 3.401528 5.383492 12.031593
C 2.657455 5.798999 10.922699
H -1.356151 1.525032 5.629478
H -1.009244 4.743108 7.575238
H 0.210591 4.768956 6.517349
H 1.004609 5.344074 8.746471
H 3.901817 5.841648 12.656881
H 2.454014 6.649398 10.616667
O 3.203523 -2.348291 1.715291
O 5.348951 0.674633 4.344899
O 0.798124 0.345717 -1.530160
O -0.373411 -1.325356 -3.120771
O -1.098099 0.248787 -4.409128
N 4.389975 -1.078508 3.249229
N 3.164973 -0.038772 1.745516
N 2.370167 0.087883 0.646068
N -0.492547 -0.154442 -3.419247
C 3.533818 -1.292400 2.166782
C 4.627111 0.232632 3.485365
C 3.819577 1.017119 2.487927
C 2.057270 1.277537 0.290919
C 1.216659 1.462997 -0.859534
C 0.066117 0.815504 -2.559712
C -0.003803 2.152492 -2.586160
C 0.740270 2.567999 -1.477266
H 4.753876 -1.705968 3.815955
H 4.406970 1.512108 1.870196
H 3.187135 1.537956 2.928084
H 2.393117 2.113074 0.698962
H -0.504092 2.610648 -3.211447
H 0.943712 3.418398 -1.171234
O 6.601249 5.579291 11.160724
O 8.746676 2.556367 13.790333
O 4.195850 2.885283 7.915273
O 3.024315 4.556356 6.324662
O 2.299626 2.982213 5.036305
N 7.787700 4.309508 12.694662
N 6.562698 3.269772 11.190949
N 5.767893 3.143117 10.091501
N 2.905179 3.385442 6.026186
C 6.931543 4.523400 11.612216
C 8.024836 2.998368 12.930798
C 7.217303 2.213881 11.933361
C 5.454996 1.953463 9.736353
C 4.614385 1.768003 8.585899
C 3.463843 2.415496 6.885721
C 3.393923 1.078508 6.859274
C 4.137996 0.663001 7.968168
H 8.151602 4.936968 13.261388
H 7.804695 1.718892 11.315629
H 6.584861 1.693044 12.373518
H 5.790842 1.117926 10.144395
H 2.893634 0.620352 6.233986
H 4.341438 -0.187398 8.274200
O 3.591928 8.810291 17.175576
O 1.446500 5.787367 14.545967
O 5.997327 6.116283 20.421027
O 7.168862 7.787356 22.011638
O 7.893551 6.213213 23.299995
N 2.405477 7.540508 15.641638
N 3.630479 6.500772 17.145351
N 4.425284 6.374117 18.244799
N 7.287998 6.616442 22.310114
C 3.261633 7.754400 16.724084
C 2.168340 6.229368 15.405502
C 2.975874 5.444881 16.402940
C 4.738181 5.184463 18.599947
C 5.578792 4.999003 19.750401
C 6.729334 5.646496 21.450579
C 6.799254 4.309508 21.477026
C 6.055181 3.894001 20.368133
H 2.041575 8.167968 15.074912
H 2.388482 4.949892 17.020671
H 3.608316 4.924044 15.962782
H 4.402335 4.348926 18.191905
H 7.299543 3.851352 22.102314
H 5.851739 3.043602 20.062101
