126
Lattice="11.247800 0.000000 0.000000 0.000000 7.088000 0.000000 -2.314295 0.000000 14.500479"
C 3.775175 1.967629 14.268471
O 3.547216 1.772000 15.485352
O 2.977674 1.657174 13.338411
C 5.117462 2.608384 13.871158
O 5.614934 3.455400 14.898082
C 6.173009 1.547310 13.607250
C 5.911208 0.180744 13.697153
C 6.929249 -0.746366 13.520247
C 8.223448 -0.326757 13.262138
C 8.490937 1.032013 13.157735
C 7.475840 1.959123 13.330290
H 4.922523 3.118720 12.992429
H 4.953499 3.997632 15.124000
H 4.945764 -0.141760 13.833457
H 6.698753 -1.736560 13.702953
H 8.984323 -0.971056 13.195436
H 9.417339 1.367984 12.948928
H 7.609453 2.906080 13.282439
C 5.158330 5.511629 0.232008
O 5.386289 5.316000 -0.984873
O 5.955831 5.201174 1.162068
C 3.816044 6.152384 0.629321
O 3.318571 6.999400 -0.397603
C 2.760497 5.091310 0.893230
C 3.022297 3.724744 0.803327
C 2.004256 2.797634 0.980232
C 0.710057 3.217243 1.238341
C 0.442568 4.576013 1.342744
C 1.457665 5.503123 1.170189
H 4.010982 6.662720 1.508050
H 3.980006 7.541632 -0.623521
H 3.987742 3.402240 0.667022
H 2.234752 1.807440 0.797526
H -0.050817 2.572944 1.305043
H -0.483833 4.911984 1.551551
H 1.324052 6.450080 1.218040
C 4.277037 3.784283 9.686320
C 5.287366 4.770224 9.473163
C 5.443691 5.931947 10.283740
C 6.416500 6.857640 10.009681
C 7.278534 6.675478 8.900394
C 7.174482 5.561245 8.121718
C 6.189995 4.578139 8.391427
N 6.162987 3.465323 7.588101
C 5.247112 2.558059 7.857810
C 4.281523 2.677138 8.882994
C 3.210024 3.965736 10.755005
O 2.514374 2.751562 10.990928
C 2.227020 5.059414 10.289540
C 1.272831 4.628464 9.164303
C -0.071725 5.332302 9.364409
C 0.194248 6.815821 9.650069
C 0.857740 6.941987 11.039215
N 1.386879 5.588179 11.437833
C 0.223798 4.688003 11.748288
C -0.794805 4.736202 10.589700
C -1.380511 3.385938 10.319991
C -2.695013 3.159830 10.338842
H 4.840957 6.031888 11.107367
H 6.543954 7.605424 10.585350
H 8.005650 7.435312 8.685787
H 7.737224 5.415232 7.337242
H 5.269975 1.772000 7.221239
H 3.606466 1.984640 8.975797
H 3.632862 4.259888 11.629384
H 2.781687 2.445360 11.817891
H 2.722292 5.840512 10.005331
H 1.203094 3.614880 9.164303
H 1.659205 4.819840 8.279774
H -0.647889 5.223856 8.569783
H -0.670611 7.364432 9.628318
H 0.778640 7.158880 9.004798
H 0.231074 7.201408 11.730888
H 1.637972 7.555808 11.020364
H 1.949722 5.620784 12.238404
H 0.569851 3.806256 11.933894
H -0.157549 4.968688 12.615417
H -1.510765 5.422320 10.875359
H -0.695049 2.686352 10.063333
H -3.278062 2.246896 10.179336
H -2.454383 2.991136 9.599317
C 4.656468 0.240283 4.814159
C 3.646139 1.226224 5.027316
C 3.489814 2.387947 4.216739
C 2.517005 3.313640 4.490798
C 1.654971 3.131478 5.600085
C 1.759024 2.017245 6.378761
C 2.743510 1.034139 6.109052
N 2.770518 -0.078677 6.912378
C 3.686393 -0.985941 6.642669
C 4.651982 -0.866862 5.617486
C 5.723481 0.421736 3.745474
O 6.419131 -0.792438 3.509551
C 6.706486 1.515414 4.210939
C 7.660675 1.084464 5.336176
C 9.005230 1.788302 5.136070
C 8.739258 3.271821 4.850410
C 8.075765 3.397987 3.461264
N 7.546626 2.044179 3.062646
C 8.709707 1.144003 2.752191
C 9.728310 1.192202 3.910779
C 10.314016 -0.158062 4.180488
C 11.628518 -0.384170 4.161638
H 4.092549 2.487888 3.393112
H 2.389551 4.061424 3.915129
H 0.927855 3.891312 5.814692
H 1.196281 1.871232 7.163237
H 3.663530 -1.772000 7.279241
H 5.327039 -1.559360 5.524683
H 5.300643 0.715888 2.871095
H 6.151818 -1.098640 2.682589
H 6.211213 2.296512 4.495149
H 7.730411 0.070880 5.336176
H 7.274301 1.275840 6.220706
H 9.581394 1.679856 5.930696
H 9.604116 3.820432 4.872161
H 8.154866 3.614880 5.495682
H 8.702431 3.657408 2.769592
H 7.295534 4.011808 3.480115
H 6.983783 2.076784 2.262075
H 8.363654 0.262256 2.566585
H 9.091055 1.424688 1.885062
H 10.444270 1.878320 3.625120
H 9.628554 -0.857648 4.437147
H 12.211567 -1.297104 4.321143
H 11.387888 -0.552864 4.901162
