72
Lattice="9.897000 0.000000 0.000000 0.000000 6.164000 0.000000 -0.996616 0.000000 12.044839"
S 7.200784 1.306768 6.922892
O 8.775767 0.388332 10.345312
O 7.584044 2.157400 9.700914
C 8.008926 0.474628 8.142311
C 8.614837 -0.943092 7.768921
C 8.136972 -0.980076 6.283793
C 7.458991 0.073968 5.829702
C 8.131565 1.035552 9.494947
H 8.327319 -1.673526 5.717685
H 7.146259 0.146703 4.944407
H 9.132345 -1.552712 8.296485
S 1.699601 4.388768 5.121947
O 0.124617 3.470332 1.699527
O 1.316341 5.239400 2.343926
C 0.891458 3.556628 3.902528
C 0.285548 2.138908 4.275918
C 0.763413 2.101924 5.761047
C 1.441394 3.155968 6.215137
C 0.768819 4.117552 2.549892
H 0.573065 1.408474 6.327154
H 1.754125 3.228703 7.100433
H -0.231960 1.529288 3.748354
N 4.768231 2.847768 9.558784
N 0.189895 1.164996 12.632627
C 3.905491 2.274516 10.452512
C 2.742751 3.026524 10.522372
C 2.915976 4.111388 9.612986
C 2.124530 5.202416 9.238392
C 2.615064 6.077704 8.309735
C 3.848071 5.898948 7.725560
C 4.667940 4.851068 8.067633
C 4.198069 3.957288 9.033629
C 1.479672 2.736816 11.254698
C 1.557353 1.528672 12.133971
H 4.079993 1.518193 10.939123
H 1.265349 5.361447 9.622622
H 2.092541 6.877175 8.070042
H 4.142698 6.537538 7.047435
H 5.514461 4.799907 7.668949
H 0.789626 2.645589 10.611503
H 1.267764 3.529506 11.794307
H 1.904138 0.839537 11.626883
H 2.124328 1.748110 12.865093
H 5.590328 2.434780 9.467244
H 0.170470 0.752008 13.369772
H -0.042281 1.898512 13.309547
H -0.547264 1.023224 11.996660
N 4.132154 -0.234232 2.486055
N 8.710489 -1.917004 -0.587788
C 4.994893 -0.807484 1.592328
C 6.157633 -0.055476 1.522468
C 5.984408 1.029388 2.431853
C 6.775854 2.120416 2.806448
C 6.285321 2.995704 3.735105
C 5.052314 2.816948 4.319279
C 4.232445 1.769068 3.977206
C 4.702315 0.875288 3.011210
C 7.420713 -0.345184 0.790141
C 7.343031 -1.553328 -0.089132
H 4.820392 -1.563807 1.105716
H 7.635035 2.279447 2.422217
H 6.807844 3.795175 3.974797
H 4.757687 3.455538 4.997404
H 3.385923 1.717907 4.375890
H 8.110758 -0.436411 1.433336
H 7.632620 0.447506 0.250533
H 6.996246 -2.242463 0.417956
H 6.776056 -1.333890 -0.820254
H 3.310056 -0.647220 2.577596
H 8.729915 -2.329992 -1.324932
H 8.942666 -1.183488 -1.264708
H 9.447649 -2.058776 0.048179
