232
Lattice="7.074400 0.000000 0.000000 0.000000 15.683700 0.000000 0.000000 0.000000 18.425000"
N -1.616500 -0.081398 2.479452
O -0.219306 -1.892552 2.572499
O 0.648722 4.624025 2.115559
N 1.792653 3.324944 3.608536
O -1.363237 -0.303950 -0.600839
O 3.114858 6.060025 4.508598
O 3.373074 2.458263 5.021918
C 3.070997 3.214845 4.122041
C 3.954590 4.216406 3.443633
H 4.729944 3.804866 3.006960
C 0.138658 1.577780 2.997932
H -0.183934 2.092206 2.242323
H 0.861662 1.010030 2.686365
C 0.667116 2.528212 4.070267
H -0.048813 3.122625 4.348300
H 0.940895 2.012219 4.843933
C 4.346511 5.336379 4.417947
H 4.669104 5.006237 5.282447
C -1.172936 -1.325900 2.095107
C -0.983342 0.712040 3.529309
H -0.631036 0.117628 4.210113
H -1.651872 1.278222 3.946635
C -2.068555 -1.844089 0.980026
C 1.683707 4.325721 2.662044
C 3.039870 4.963421 2.453473
O -3.281107 1.401339 1.959130
C -3.143863 -0.733840 0.793749
C -2.735670 0.332024 1.789989
C 3.427547 4.894883 0.980210
H 4.323166 5.222672 0.869660
H 2.823393 5.432834 0.464310
H 3.381563 3.983660 0.679883
C -2.797925 -0.205456 -0.613184
H -3.125470 0.702630 -0.781220
C -3.185602 -1.202940 -1.699338
H -3.149523 -0.799869 -2.581343
H -4.073440 -1.565233 -1.547700
C 4.332363 7.107853 2.848505
H 4.272230 8.042601 3.104613
H 4.601897 7.046686 1.919885
C -2.103927 -2.281978 -1.531117
H -2.492311 -3.144582 -1.313702
H -1.558490 -2.366670 -2.327078
C -4.607557 -1.090017 1.013375
H -4.831815 -1.861655 0.486420
H -5.160067 -0.351315 0.749897
H -4.753289 -1.284495 1.941995
C 3.022891 6.376522 3.098532
H 2.229851 6.903965 2.866930
C -1.301690 -1.719090 -0.360577
H -0.385555 -2.065543 -0.316910
C -2.522731 -3.252486 1.326600
H -3.158012 -3.553926 0.672512
H -2.933046 -3.252799 2.194418
H -1.765063 -3.840938 1.330285
C 5.289529 6.334646 3.762385
H 5.982113 5.887661 3.252012
H 5.701259 6.918080 4.420158
N 5.153700 15.765098 11.691952
O 3.756506 17.576252 11.784999
O 2.888478 11.059675 11.328059
N 1.744547 12.358756 12.821036
O 4.900437 15.987650 8.611661
O 0.422342 9.623675 13.721098
O 0.164126 13.225437 14.234418
C 0.466203 12.468855 13.334541
C -0.417390 11.467294 12.656133
H -1.192744 11.878834 12.219460
C 3.398542 14.105920 12.210432
H 3.721134 13.591494 11.454823
H 2.675538 14.673670 11.898865
C 2.870084 13.155488 13.282767
H 3.586013 12.561075 13.560800
H 2.596305 13.671481 14.056433
C -0.809311 10.347321 13.630446
H -1.131904 10.677463 14.494948
C 4.710136 17.009600 11.307607
C 4.520542 14.971660 12.741809
H 4.168236 15.566072 13.422613
H 5.189072 14.405478 13.159135
C 5.605755 17.527789 10.192526
C 1.853493 11.357979 11.874544
C 0.497330 10.720279 11.665973
O 6.818307 14.282361 11.171630
C 6.681063 16.417540 10.006249
C 6.272870 15.351676 11.002489
C 0.109653 10.788817 10.192710
H -0.785966 10.461028 10.082160
H 0.713807 10.250866 9.676810
H 0.155637 11.700040 9.892383
C 6.335125 15.889156 8.599316
H 6.662670 14.981070 8.431280
C 6.722802 16.886640 7.513162
H 6.686723 16.483569 6.631158
H 7.610640 17.248933 7.664800
C -0.795163 8.575847 12.061005
H -0.735030 7.641099 12.317113
H -1.064697 8.637014 11.132385
C 5.641127 17.965678 7.681382
H 6.029511 18.828282 7.898798
H 5.095690 18.050370 6.885422
C 8.144757 16.773717 10.225875
H 8.369015 17.545355 9.698920
H 8.697267 16.035015 9.962397
H 8.290489 16.968195 11.154495
C 0.514309 9.307178 12.311032
H 1.307349 8.779735 12.079430
C 4.838890 17.402790 8.851923
H 3.922755 17.749243 8.895590
C 6.059931 18.936186 10.539100
H 6.695212 19.237626 9.885013
H 6.470246 18.936499 11.406918
H 5.302263 19.524638 10.542785
C -1.752329 9.349054 12.974885
H -2.444913 9.796039 12.464512
H -2.164059 8.765620 13.632658
N 1.920700 7.923248 15.945548
O 3.317894 9.734402 15.852502
O 4.185922 3.217825 16.309441
N 5.329853 4.516906 14.816464
O 2.173963 8.145800 19.025839
O 6.652058 1.781825 13.916403
O 6.910274 5.383587 13.403082
C 6.608197 4.627005 14.302959
C 7.491790 3.625444 14.981368
H 8.267144 4.036984 15.418040
C 3.675858 6.264070 15.427068
H 3.353266 5.749644 16.182678
H 4.398862 6.831820 15.738635
C 4.204316 5.313638 14.354733
H 3.488387 4.719225 14.076700
H 4.478095 5.829631 13.581067
C 7.883711 2.505471 14.007054
H 8.206304 2.835613 13.142553
C 2.364264 9.167750 16.329893
C 2.553858 7.129810 14.895691
H 2.906164 7.724222 14.214887
H 1.885328 6.563628 14.478365
C 1.468645 9.685939 17.444974
C 5.220907 3.516129 15.762956
C 6.577070 2.878429 15.971527
O 0.256093 6.440511 16.465870
C 0.393337 8.575690 17.631251
C 0.801530 7.509826 16.635011
C 6.964747 2.946967 17.444790
H 7.860366 2.619178 17.555340
H 6.360593 2.409016 17.960690
H 6.918763 3.858190 17.745117
C 0.739275 8.047306 19.038184
H 0.411730 7.139220 19.206220
C 0.351598 9.044790 20.124338
H 0.387677 8.641719 21.006342
H -0.536240 9.407083 19.972700
C 7.869563 0.733997 15.576495
H 7.809430 -0.200751 15.320388
H 8.139097 0.795164 16.505115
C 1.433273 10.123828 19.956118
H 1.044889 10.986432 19.738702
H 1.978710 10.208520 20.752078
C -1.070357 8.931867 17.411625
H -1.294615 9.703505 17.938580
H -1.622867 8.193165 17.675103
H -1.216089 9.126345 16.483005
C 6.560091 1.465328 15.326468
H 5.767051 0.937885 15.558070
C 2.235510 9.560940 18.785577
H 3.151645 9.907393 18.741910
C 1.014469 11.094336 17.098400
H 0.379188 11.395776 17.752488
H 0.604154 11.094649 16.230583
H 1.772137 11.682788 17.094715
C 8.826729 1.507204 14.662615
H 9.519313 1.954189 15.172988
H 9.238459 0.923770 14.004843
N 8.690900 7.760452 6.733048
O 7.293706 5.949298 6.640001
O 6.425678 12.465875 7.096942
N 5.281747 11.166794 5.603964
O 8.437637 7.537900 9.813339
O 3.959542 13.901875 4.703903
O 3.701326 10.300113 4.190582
C 4.003403 11.056695 5.090459
C 3.119810 12.058256 5.768867
H 2.344456 11.646716 6.205540
C 6.935742 9.419630 6.214568
H 7.258334 9.934056 6.970178
H 6.212738 8.851880 6.526135
C 6.407284 10.370062 5.142233
H 7.123213 10.964475 4.864200
H 6.133505 9.854069 4.368568
C 2.727889 13.178229 4.794554
H 2.405296 12.848087 3.930052
C 8.247336 6.515950 7.117393
C 8.057742 8.553890 5.683191
H 7.705436 7.959478 5.002388
H 8.726272 9.120072 5.265865
C 9.142955 5.997761 8.232474
C 5.390693 12.167571 6.550456
C 4.034530 12.805271 6.759027
O 10.355507 9.243189 7.253370
C 10.218263 7.108010 8.418751
C 9.810070 8.173874 7.422511
C 3.646853 12.736733 8.232290
H 2.751234 13.064522 8.342840
H 4.251007 13.274684 8.748190
H 3.692837 11.825510 8.532618
C 9.872325 7.636394 9.825684
H 10.199870 8.544480 9.993720
C 10.260002 6.638910 10.911838
H 10.223923 7.041981 11.793843
H 11.147840 6.276617 10.760200
C 2.742037 14.949703 6.363995
H 2.802170 15.884451 6.107888
H 2.472503 14.888536 7.292615
C 9.178327 5.559872 10.743617
H 9.566711 4.697268 10.526203
H 8.632890 5.475180 11.539578
C 11.681957 6.751833 8.199125
H 11.906215 5.980195 8.726080
H 12.234467 7.490535 8.462603
H 11.827689 6.557355 7.270505
C 4.051509 14.218372 6.113968
H 4.844549 14.745815 6.345570
C 8.376090 6.122760 9.573077
H 7.459955 5.776307 9.529410
C 9.597131 4.589364 7.885900
H 10.232412 4.287924 8.539988
H 10.007446 4.589051 7.018083
H 8.839463 4.000912 7.882215
C 1.784871 14.176496 5.450115
H 1.092287 13.729511 5.960488
H 1.373141 14.759930 4.792343
