94
Lattice="5.317200 0.000000 0.000000 -1.624122 8.501046 0.000000 -0.794326 -3.317474 14.599468"
Br 5.312445 -2.614578 3.479228
N 2.499847 0.373894 3.414816
C 2.821247 1.130579 4.478387
N 1.969734 2.205636 4.669494
H 1.443435 2.263727 4.141869
C 3.909196 0.832164 5.305301
H 4.119516 1.380946 6.051480
C 4.668383 -0.278471 5.007764
H 5.416921 -0.506265 5.546338
C 4.330437 -1.061103 3.913971
C 3.245082 -0.708832 3.145601
H 3.015183 -1.250129 2.400153
C 2.007930 3.175194 5.641380
O 2.850810 3.217171 6.515013
C 0.886628 4.167788 5.511883
H 0.027123 3.706936 5.680653
H 0.867306 4.512897 4.584233
C 1.017167 5.335148 6.468878
H 0.283525 5.966722 6.315730
H 1.873979 5.786687 6.318650
H 0.977835 5.007286 7.391711
Br -2.413692 7.798151 11.120240
N 0.398906 4.809678 11.184653
C 0.077506 4.052994 10.121081
N 0.929019 2.977937 9.929974
H 1.455318 2.919846 10.457599
C -1.010444 4.351409 9.294167
H -1.220763 3.802626 8.547989
C -1.769631 5.462044 9.591705
H -2.518168 5.689838 9.053130
C -1.431685 6.244676 10.685497
C -0.346330 5.892405 11.453867
H -0.116430 6.433702 12.199316
C 0.890822 2.008379 8.958088
O 0.047942 1.966402 8.084455
C 2.012124 1.015785 9.087585
H 2.871630 1.476637 8.918815
H 2.031447 0.670676 10.015235
C 1.881585 -0.151575 8.130590
H 2.615228 -0.783149 8.283738
H 1.024773 -0.603114 8.280818
H 1.920917 0.176287 7.207757
C 5.119759 1.800842 1.708284
O 5.882346 0.745410 1.491044
H 6.390911 0.669718 2.065825
O 5.263427 2.538348 2.663965
C 4.063511 2.020015 0.657706
H 3.468689 1.229563 0.623397
H 4.498057 2.112925 -0.226292
C 3.232516 3.260567 0.940936
H 3.844114 4.026283 1.080361
H 2.731397 3.120320 1.782595
C 2.242456 3.621384 -0.160594
H 2.735661 3.756322 -1.008823
H 1.613999 2.867444 -0.291989
C -1.426681 6.700205 -1.708284
O -2.189267 7.755637 -1.491044
H -2.697833 7.831329 -2.065825
O -1.570349 5.962699 -2.663965
C -0.370433 6.481032 -0.657706
H 0.224389 7.271484 -0.623397
H -0.804979 6.388122 0.226292
C 0.460562 5.240480 -0.940936
H -0.151035 4.474764 -1.080361
H 0.961681 5.380726 -1.782595
C 1.450622 4.879663 0.160594
H 0.957417 4.744725 1.008823
H 2.079079 5.633602 0.291989
C 4.325434 -1.516632 16.307752
O 5.088020 -2.572064 16.090512
H 5.596586 -2.647756 16.665293
O 4.469101 -0.779126 17.263433
C 3.269185 -1.297459 15.257174
H 2.674363 -2.087911 15.222865
H 3.703731 -1.204549 14.373176
C 2.438191 -0.056907 15.540404
H 3.049788 0.708809 15.679829
H 1.937072 -0.197153 16.382063
C 1.448131 0.303910 14.438874
H 1.941336 0.438848 13.590645
H 0.819673 -0.450029 14.307479
C -2.221007 3.382731 12.891184
O -2.983593 4.438163 13.108424
H -3.492159 4.513855 12.533643
O -2.364674 2.645225 11.935503
C -1.164758 3.163558 13.941762
H -0.569937 3.954010 13.976071
H -1.599304 3.070648 14.825760
C -0.333764 1.923006 13.658532
H -0.945361 1.157290 13.519107
H 0.167355 2.063252 12.816873
C 0.656296 1.562189 14.760062
H 0.163091 1.427251 15.608291
H 1.284753 2.316129 14.891457
