92
Lattice="4.987800 0.000000 0.000000 -0.584297 9.976003 0.000000 -0.420628 -4.557142 10.509255"
Br 3.413200 6.571878 2.060655
N 1.358814 3.031196 2.262643
C 2.008161 2.343178 3.207425
N 1.489767 1.076640 3.436526
H 0.874158 0.866869 3.016156
C 3.111847 2.878877 3.888424
H 3.557629 2.376726 4.561017
C 3.534357 4.145897 3.561586
H 4.276872 4.534361 4.009281
C 2.872236 4.847327 2.578971
C 1.775056 4.257548 1.953670
H 1.309357 4.745905 1.285282
C 1.972391 0.087707 4.256248
O 2.984988 0.202615 4.929891
C 1.148227 -1.162545 4.249943
H 1.058705 -1.499616 5.165299
H 1.586448 -1.839806 3.692952
H 0.260246 -0.965506 3.885271
Br 0.569674 -1.153017 8.448600
N 2.624060 2.387665 8.246612
C 1.974714 3.075683 7.301830
N 2.493108 4.342221 7.072728
H 3.108717 4.551992 7.493099
C 0.871027 2.539985 6.620830
H 0.425245 3.042135 5.948238
C 0.448517 1.272964 6.947668
H -0.293997 0.884500 6.499974
C 1.110639 0.571534 7.930284
C 2.207818 1.161313 8.555584
H 2.673518 0.672956 9.223973
C 2.010484 5.331154 6.253007
O 0.997886 5.216246 5.579363
C 2.834648 6.581406 6.259312
H 2.924169 6.918477 5.343956
H 2.396426 7.258668 6.816303
H 3.722629 6.384367 6.623983
C 3.872984 1.057576 0.830231
O 4.254999 2.305786 0.689407
H 4.809486 2.446193 1.145509
O 4.375352 0.272425 1.607916
C 2.725473 0.708212 -0.087227
H 1.969122 1.321080 0.091431
H 3.008966 0.843275 -1.026754
C 1.114816 -1.057576 -0.830231
O 0.732801 -2.305786 -0.689407
H 0.178314 -2.446193 -1.145509
O 0.612448 -0.272425 -1.607916
C 2.262327 -0.708212 0.087227
H 3.018678 -1.321080 -0.091431
H 1.978834 -0.843275 1.026754
C 3.452356 -3.499566 11.339486
O 3.834370 -2.251356 11.198662
H 4.388858 -2.110950 11.654763
O 3.954724 -4.284717 12.117171
C 2.304844 -3.848930 10.422028
H 1.548494 -3.236062 10.600685
H 2.588337 -3.713867 9.482500
C 0.694188 -5.614718 9.679024
O 0.312173 -6.862928 9.819848
H -0.242315 -7.003335 9.363746
O 0.191820 -4.829567 8.901339
C 1.841699 -5.265354 10.596481
H 2.598050 -5.878222 10.417824
H 1.558206 -5.400417 11.536009
C 3.288687 11.033579 0.830231
O 3.670701 12.281789 0.689407
H 4.225189 12.422196 1.145509
O 3.791055 10.248428 1.607916
C 2.141175 10.684215 -0.087227
H 1.384825 11.297083 0.091431
H 2.424668 10.819279 -1.026754
C 0.530519 8.918428 -0.830231
O 0.148504 7.670217 -0.689407
H -0.405983 7.529811 -1.145509
O 0.028151 9.703579 -1.607916
C 1.678030 9.267792 0.087227
H 2.434381 8.654924 -0.091431
H 1.394537 9.132728 1.026754
C 2.868059 6.476437 11.339486
O 3.250073 7.724647 11.198662
H 3.804561 7.865054 11.654763
O 3.370426 5.691286 12.117171
C 1.720547 6.127073 10.422028
H 0.964197 6.739941 10.600685
H 2.004040 6.262137 9.482500
C 0.109890 4.361285 9.679024
O -0.272124 3.113075 9.819848
H -0.826612 2.972669 9.363746
O -0.392477 5.146436 8.901339
C 1.257402 4.710650 10.596481
H 2.013752 4.097782 10.417824
H 0.973909 4.575586 11.536009
