210
Lattice="8.733000 0.000000 0.000000 0.000000 5.871000 0.000000 -0.142927 0.000000 15.306333"
O 1.517452 4.190133 4.900016
N 0.345963 1.905140 5.222674
C 0.326082 0.515474 7.258263
C -0.421053 0.936425 5.998552
C 0.722067 1.574602 4.037811
C 1.538375 2.467581 3.220452
C 1.977224 2.057786 1.956149
C 2.804371 2.856829 1.193894
C 3.203219 4.090913 1.688288
C 2.768148 4.529477 2.921979
C 1.930422 3.730433 3.694949
H 1.670161 1.168329 1.639308
H 0.480959 0.681036 3.671989
H -0.644998 0.117420 5.478136
H 3.043458 5.389578 3.272494
H -1.316138 1.397298 6.274066
H 1.209857 0.093936 6.978157
H 3.796583 4.679187 1.178588
H 3.062424 2.542143 0.306127
H 0.529684 1.367943 7.806230
H 0.989488 3.422793 5.326604
C -0.469009 -0.515474 8.048070
C 0.278125 -0.936424 9.307781
N -0.488891 -1.905139 10.083659
C -0.864994 -1.574602 11.268522
C -1.681302 -2.467581 12.085880
C -2.120152 -2.057785 13.350183
C -2.947298 -2.856829 14.112439
C -3.346146 -4.090913 13.618044
C -2.911076 -4.529476 12.384354
C -2.073350 -3.730433 11.611384
O -1.660379 -4.190133 10.406316
H -1.132416 -3.422793 9.979729
H -3.186385 -5.389578 12.033839
H -3.939510 -4.679187 14.127745
H -3.205352 -2.542143 15.000206
H -1.813089 -1.168329 13.667024
H -0.623886 -0.681036 11.634343
H 0.502070 -0.117420 9.828196
H 1.173211 -1.397298 9.032267
H -1.352785 -0.093936 8.328176
H -0.672611 -1.367943 7.500103
O 1.517452 10.061133 4.900016
N 0.345963 7.776140 5.222674
C 0.326082 6.386474 7.258263
C -0.421053 6.807425 5.998552
C 0.722067 7.445602 4.037811
C 1.538375 8.338581 3.220452
C 1.977224 7.928786 1.956149
C 2.804371 8.727829 1.193894
C 3.203219 9.961913 1.688288
C 2.768148 10.400477 2.921979
C 1.930422 9.601433 3.694949
H 1.670161 7.039329 1.639308
H 0.480959 6.552036 3.671989
H -0.644998 5.988420 5.478136
H 3.043458 11.260578 3.272494
H -1.316138 7.268298 6.274066
H 1.209857 5.964936 6.978157
H 3.796583 10.550187 1.178588
H 3.062424 8.413143 0.306127
H 0.529684 7.238943 7.806230
H 0.989488 9.293793 5.326604
C -0.469009 5.355526 8.048070
C 0.278125 4.934576 9.307781
N -0.488891 3.965861 10.083659
C -0.864994 4.296398 11.268522
C -1.681302 3.403419 12.085880
C -2.120152 3.813215 13.350183
C -2.947298 3.014171 14.112439
C -3.346146 1.780087 13.618044
C -2.911076 1.341524 12.384354
C -2.073350 2.140567 11.611384
O -1.660379 1.680867 10.406316
H -1.132416 2.448207 9.979729
H -3.186385 0.481422 12.033839
H -3.939510 1.191813 14.127745
H -3.205352 3.328857 15.000206
H -1.813089 4.702671 13.667024
H -0.623886 5.189964 11.634343
H 0.502070 5.753580 9.828196
H 1.173211 4.473702 9.032267
H -1.352785 5.777064 8.328176
H -0.672611 4.503057 7.500103
O 10.250452 4.190133 4.900016
N 9.078963 1.905140 5.222674
C 9.059082 0.515474 7.258263
C 8.311947 0.936425 5.998552
C 9.455067 1.574602 4.037811
C 10.271375 2.467581 3.220452
C 10.710224 2.057786 1.956149
C 11.537371 2.856829 1.193894
C 11.936219 4.090913 1.688288
C 11.501148 4.529477 2.921979
C 10.663422 3.730433 3.694949
H 10.403161 1.168329 1.639308
H 9.213959 0.681036 3.671989
H 8.088002 0.117420 5.478136
H 11.776458 5.389578 3.272494
H 7.416862 1.397298 6.274066
H 9.942857 0.093936 6.978157
H 12.529583 4.679187 1.178588
H 11.795424 2.542143 0.306127
H 9.262684 1.367943 7.806230
H 9.722488 3.422793 5.326604
C 8.263991 -0.515474 8.048070
C 9.011125 -0.936424 9.307781
N 8.244109 -1.905139 10.083659
C 7.868006 -1.574602 11.268522
C 7.051698 -2.467581 12.085880
C 6.612848 -2.057785 13.350183
C 5.785702 -2.856829 14.112439
C 5.386854 -4.090913 13.618044
C 5.821924 -4.529476 12.384354
C 6.659650 -3.730433 11.611384
O 7.072621 -4.190133 10.406316
H 7.600584 -3.422793 9.979729
H 5.546615 -5.389578 12.033839
H 4.793490 -4.679187 14.127745
H 5.527648 -2.542143 15.000206
H 6.919911 -1.168329 13.667024
H 8.109114 -0.681036 11.634343
H 9.235070 -0.117420 9.828196
H 9.906211 -1.397298 9.032267
H 7.380215 -0.093936 8.328176
H 8.060389 -1.367943 7.500103
O 10.250452 10.061133 4.900016
N 9.078963 7.776140 5.222674
C 9.059082 6.386474 7.258263
C 8.311947 6.807425 5.998552
C 9.455067 7.445602 4.037811
C 10.271375 8.338581 3.220452
C 10.710224 7.928786 1.956149
C 11.537371 8.727829 1.193894
C 11.936219 9.961913 1.688288
C 11.501148 10.400477 2.921979
C 10.663422 9.601433 3.694949
H 10.403161 7.039329 1.639308
H 9.213959 6.552036 3.671989
H 8.088002 5.988420 5.478136
H 11.776458 11.260578 3.272494
H 7.416862 7.268298 6.274066
H 9.942857 5.964936 6.978157
H 12.529583 10.550187 1.178588
H 11.795424 8.413143 0.306127
H 9.262684 7.238943 7.806230
H 9.722488 9.293793 5.326604
C 8.263991 5.355526 8.048070
C 9.011125 4.934576 9.307781
N 8.244109 3.965861 10.083659
C 7.868006 4.296398 11.268522
C 7.051698 3.403419 12.085880
C 6.612848 3.813215 13.350183
C 5.785702 3.014171 14.112439
C 5.386854 1.780087 13.618044
C 5.821924 1.341524 12.384354
C 6.659650 2.140567 11.611384
O 7.072621 1.680867 10.406316
H 7.600584 2.448207 9.979729
H 5.546615 0.481422 12.033839
H 4.793490 1.191813 14.127745
H 5.527648 3.328857 15.000206
H 6.919911 4.702671 13.667024
H 8.109114 5.189964 11.634343
H 9.235070 5.753580 9.828196
H 9.906211 4.473702 9.032267
H 7.380215 5.777064 8.328176
H 8.060389 4.503057 7.500103
O 2.706121 7.125633 10.406316
N 3.877609 4.840640 10.083659
C 3.897491 3.450974 8.048070
C 4.644625 3.871925 9.307781
C 3.501506 4.510102 11.268522
C 2.685198 5.403081 12.085880
C 2.246348 4.993286 13.350183
C 1.419202 5.792329 14.112439
C 1.020354 7.026413 13.618044
C 1.455424 7.464977 12.384354
C 2.293150 6.665933 11.611384
H 2.553411 4.103829 13.667024
H 3.742614 3.616536 11.634343
H 4.868570 3.052920 9.828196
H 1.180115 8.325078 12.033839
H 5.539711 4.332798 9.032267
H 3.013715 3.029436 8.328176
H 0.426990 7.614687 14.127745
H 1.161148 5.477643 15.000206
H 3.693889 4.303443 7.500103
H 3.234084 6.358293 9.979729
C 4.692582 2.420026 7.258263
C 3.945447 1.999076 5.998552
N 4.712463 1.030361 5.222674
C 5.088567 1.360898 4.037811
C 5.904875 0.467919 3.220452
C 6.343724 0.877715 1.956149
C 7.170871 0.078671 1.193894
C 7.569719 -1.155413 1.688288
C 7.134648 -1.593976 2.921979
C 6.296922 -0.794933 3.694949
O 5.883952 -1.254633 4.900016
H 5.355988 -0.487293 5.326604
H 7.409958 -2.454078 3.272494
H 8.163083 -1.743687 1.178588
H 7.428924 0.393357 0.306127
H 6.036661 1.767171 1.639308
H 4.847459 2.254464 3.671989
H 3.721502 2.818080 5.478136
H 3.050362 1.538202 6.274066
H 5.576357 2.841564 6.978157
H 4.896184 1.567557 7.806230
