128
Lattice="4.530600 0.000000 0.000000 2.118007 7.927749 0.000000 1.511795 2.834018 10.530000"
I 2.784007 3.514156 6.030636
C 1.306728 2.539863 3.492801
H 0.807952 1.899360 3.946644
C 2.234292 3.407355 4.041414
C 2.692663 4.160788 2.982096
H 3.330799 4.832628 3.060018
C 0.559713 2.065808 1.139346
H 0.282409 2.678615 0.441207
H -0.237308 1.663628 1.518426
C 1.424598 0.990824 0.544401
C 1.557772 -0.251075 1.146717
H 1.081844 -0.430100 1.924884
C 2.379815 -1.228360 0.620217
H 2.448515 -2.052228 1.046682
N 1.268582 2.805845 2.177604
N 2.115635 3.813885 1.837485
I 1.746593 -3.514156 -6.030636
C 3.223872 -2.539863 -3.492801
H 3.722648 -1.899360 -3.946644
C 2.296308 -3.407355 -4.041414
C 1.837937 -4.160788 -2.982096
H 1.199801 -4.832628 -3.060018
C 3.970887 -2.065808 -1.139346
H 4.248191 -2.678615 -0.441207
H 4.767908 -1.663628 -1.518426
C 3.106002 -0.990824 -0.544401
C 2.972828 0.251075 -1.146717
H 3.448756 0.430100 -1.924884
C 2.150785 1.228360 -0.620217
H 2.082085 2.052228 -1.046682
N 3.262018 -2.805845 -2.177604
N 2.414965 -3.813885 -1.837485
I 4.295802 6.348173 16.560636
C 2.818523 5.373881 14.022801
H 2.319746 4.733378 14.476644
C 3.746086 6.241373 14.571414
C 4.204458 6.994806 13.512096
H 4.842593 7.666646 13.590018
C 2.071508 4.899826 11.669346
H 1.794204 5.512633 10.971207
H 1.274486 4.497646 12.048426
C 2.936393 3.824842 11.074401
C 3.069567 2.582943 11.676717
H 2.593638 2.403918 12.454884
C 3.891610 1.605658 11.150217
H 3.960310 0.781790 11.576682
N 2.780377 5.639862 12.707604
N 3.627430 6.647902 12.367485
I 3.258387 -0.680138 4.499364
C 4.735667 0.294154 7.037199
H 5.234443 0.934658 6.583356
C 3.808103 -0.573337 6.488586
C 3.349732 -1.326770 7.547904
H 2.711596 -1.998610 7.469982
C 5.482682 0.768210 9.390654
H 5.759986 0.155402 10.088793
H 6.279703 1.170390 9.011574
C 4.617797 1.843194 9.985599
C 4.484622 3.085092 9.383283
H 4.960551 3.264118 8.605116
C 3.662579 4.062378 9.909783
H 3.593880 4.886246 9.483318
N 4.773813 0.028173 8.352396
N 3.926759 -0.979867 8.692515
I 4.902014 11.441904 6.030636
C 3.424735 10.467612 3.492801
H 2.925958 9.827109 3.946644
C 4.352298 11.335104 4.041414
C 4.810669 12.088537 2.982096
H 5.448805 12.760377 3.060018
C 2.677720 9.993557 1.139346
H 2.400416 10.606364 0.441207
H 1.880698 9.591377 1.518426
C 3.542604 8.918573 0.544401
C 3.675779 7.676674 1.146717
H 3.199850 7.497649 1.924884
C 4.497822 6.699389 0.620217
H 4.566522 5.875521 1.046682
N 3.386589 10.733593 2.177604
N 4.233642 11.741633 1.837485
I 3.864599 4.413593 -6.030636
C 5.341878 5.387885 -3.492801
H 5.840655 6.028389 -3.946644
C 4.414315 4.520393 -4.041414
C 3.955944 3.766961 -2.982096
H 3.317808 3.095121 -3.060018
C 6.088893 5.861941 -1.139346
H 6.366198 5.249133 -0.441207
H 6.885915 6.264121 -1.518426
C 5.224009 6.936925 -0.544401
C 5.090834 8.178823 -1.146717
H 5.566763 8.357849 -1.924884
C 4.268791 9.156109 -0.620217
H 4.200091 9.979977 -1.046682
N 5.380024 5.121904 -2.177604
N 4.532971 4.113864 -1.837485
I 6.413809 14.275922 16.560636
C 4.936529 13.301630 14.022801
H 4.437753 12.661127 14.476644
C 5.864093 14.169122 14.571414
C 6.322464 14.922555 13.512096
H 6.960600 15.594395 13.590018
C 4.189514 12.827575 11.669346
H 3.912210 13.440382 10.971207
H 3.392493 12.425395 12.048426
C 5.054399 11.752591 11.074401
C 5.187574 10.510692 11.676717
H 4.711645 10.331666 12.454884
C 6.009617 9.533407 11.150217
H 6.078317 8.709539 11.576682
N 4.898383 13.567611 12.707604
N 5.745437 14.575651 12.367485
I 5.376394 7.247611 4.499364
C 6.853673 8.221903 7.037199
H 7.352450 8.862407 6.583356
C 5.926110 7.354411 6.488586
C 5.467738 6.600978 7.547904
H 4.829603 5.929139 7.469982
C 7.600688 8.695959 9.390654
H 7.877992 8.083151 10.088793
H 8.397710 9.098139 9.011574
C 6.735803 9.770943 9.985599
C 6.602629 11.012841 9.383283
H 7.078558 11.191867 8.605116
C 5.780586 11.990127 9.909783
H 5.711886 12.813995 9.483318
N 6.891819 7.955922 8.352396
N 6.044766 6.947882 8.692515
