336
Lattice="8.930600 0.000000 0.000000 0.000000 17.970900 0.000000 0.000000 0.000000 19.809700"
O 0.498327 -0.401650 1.328835
O 4.716250 1.846869 2.083782
C 0.133066 -3.367747 3.339915
H -0.461712 -4.077597 3.417173
C -0.093771 -2.386536 2.424707
H -0.851086 -2.424274 1.885883
C 0.806433 -1.322658 2.291586
C 1.191342 0.817676 1.418375
H 0.789465 1.342426 2.129543
H 1.057383 1.304687 0.590329
C 2.612200 0.735010 1.668571
H 2.950670 0.240810 0.893417
C 3.431137 1.946248 1.679863
H 3.019436 2.481781 2.391031
C 3.345403 2.855576 0.489300
C 3.926785 2.526709 -0.719092
H 4.382245 1.719815 -0.798331
C 3.851768 3.355167 -1.802683
H 4.252752 3.112560 -2.604976
C 3.189117 4.534058 -1.699672
H 3.148037 5.109127 -2.430650
C 1.247605 -3.306646 4.158056
H 1.391387 -3.960786 4.803852
C 2.141558 -2.273319 4.004927
H 2.892621 -2.246362 4.552269
C 1.965625 -1.266948 3.065749
C 5.052933 1.090834 3.266223
C 4.039310 0.019768 3.530089
H 4.200954 -0.555301 4.243238
C 2.931023 -0.176115 2.828627
C 5.164566 2.030712 4.447278
H 5.886158 2.647114 4.298705
H 5.336034 1.523932 5.245609
H 4.343844 2.517723 4.548307
C 6.406812 0.481620 2.955607
H 6.318399 -0.138376 2.228591
H 6.736352 0.021565 3.730167
H 7.021238 1.177094 2.707986
C 2.584516 4.879099 -0.530900
H 2.120124 5.682399 -0.471471
C 2.655960 4.052438 0.554672
H 2.236222 4.298639 1.347060
O 4.963627 9.387100 18.480865
O 9.181550 7.138581 17.725918
C 4.598366 12.353197 16.469785
H 4.003588 13.063047 16.392527
C 4.371529 11.371986 17.384993
H 3.614214 11.409724 17.923817
C 5.271733 10.308108 17.518114
C 5.656642 8.167774 18.391325
H 5.254765 7.643024 17.680157
H 5.522683 7.680763 19.219371
C 7.077501 8.250440 18.141129
H 7.415970 8.744640 18.916283
C 7.896437 7.039202 18.129837
H 7.484736 6.503669 17.418669
C 7.810703 6.129874 19.320400
C 8.392085 6.458741 20.528792
H 8.847545 7.265635 20.608031
C 8.317068 5.630283 21.612383
H 8.718052 5.872890 22.414676
C 7.654417 4.451392 21.509372
H 7.613337 3.876323 22.240350
C 5.712905 12.292096 15.651644
H 5.856687 12.946236 15.005848
C 6.606858 11.258769 15.804773
H 7.357921 11.231813 15.257431
C 6.430925 10.252398 16.743951
C 9.518233 7.894616 16.543477
C 8.504610 8.965682 16.279611
H 8.666254 9.540751 15.566462
C 7.396323 9.161565 16.981073
C 9.629866 6.954738 15.362422
H 10.351458 6.338336 15.510995
H 9.801334 7.461518 14.564091
H 8.809144 6.467727 15.261393
C 10.872112 8.503830 16.854093
H 10.783700 9.123826 17.581109
H 11.201652 8.963885 16.079533
H 11.486538 7.808356 17.101714
C 7.049816 4.106351 20.340600
H 6.585424 3.303051 20.281171
C 7.121260 4.933012 19.255028
H 6.701522 4.686811 18.462640
O 8.432273 8.583800 8.576015
O 4.214350 10.832319 7.821068
C 8.797534 5.617703 6.564935
H 9.392312 4.907853 6.487677
C 9.024371 6.598914 7.480143
H 9.781686 6.561176 8.018967
C 8.124167 7.662792 7.613264
C 7.739258 9.803126 8.486475
H 8.141135 10.327876 7.775307
H 7.873217 10.290137 9.314521
C 6.318400 9.720460 8.236279
H 5.979930 9.226260 9.011433
C 5.499463 10.931698 8.224987
H 5.911164 11.467231 7.513819
C 5.585197 11.841026 9.415550
C 5.003815 11.512159 10.623942
H 4.548355 10.705265 10.703181
C 5.078832 12.340617 11.707533
H 4.677848 12.098010 12.509826
C 5.741483 13.519508 11.604522
H 5.782564 14.094577 12.335500
C 7.682995 5.678804 5.746794
H 7.539213 5.024664 5.100998
C 6.789042 6.712131 5.899923
H 6.037979 6.739088 5.352581
C 6.964975 7.718502 6.839101
C 3.877667 10.076284 6.638627
C 4.891290 9.005218 6.374761
H 4.729646 8.430149 5.661612
C 5.999577 8.809335 7.076223
C 3.766034 11.016162 5.457572
H 3.044442 11.632564 5.606145
H 3.594567 10.509382 4.659241
H 4.586756 11.503173 5.356543
C 2.523788 9.467070 6.949243
H 2.612201 8.847074 7.676259
H 2.194248 9.007015 6.174683
H 1.909362 10.162544 7.196864
C 6.346084 13.864549 10.435750
H 6.810476 14.667849 10.376321
C 6.274640 13.037888 9.350178
H 6.694378 13.284089 8.557790
O 3.966973 18.372550 11.233685
O -0.250950 16.124031 11.988632
C 4.332234 21.338647 13.244765
H 4.927012 22.048497 13.322023
C 4.559071 20.357436 12.329557
H 5.316386 20.395174 11.790733
C 3.658867 19.293558 12.196436
C 3.273958 17.153224 11.323225
H 3.675835 16.628474 12.034393
H 3.407917 16.666213 10.495179
C 1.853100 17.235890 11.573421
H 1.514630 17.730090 10.798267
C 1.034163 16.024652 11.584713
H 1.445864 15.489119 12.295881
C 1.119897 15.115324 10.394150
C 0.538515 15.444191 9.185758
H 0.083055 16.251085 9.106519
C 0.613532 14.615733 8.102167
H 0.212548 14.858340 7.299874
C 1.276183 13.436842 8.205178
H 1.317264 12.861773 7.474200
C 3.217695 21.277546 14.062906
H 3.073913 21.931686 14.708702
C 2.323742 20.244219 13.909777
H 1.572679 20.217263 14.457119
C 2.499675 19.237848 12.970599
C -0.587633 16.880066 13.171073
C 0.425990 17.951132 13.434939
H 0.264346 18.526201 14.148088
C 1.534277 18.147015 12.733477
C -0.699266 15.940188 14.352128
H -1.420858 15.323786 14.203555
H -0.870733 16.446968 15.150459
H 0.121456 15.453177 14.453157
C -1.941512 17.489280 12.860457
H -1.853099 18.109276 12.133441
H -2.271052 17.949335 13.635017
H -2.555938 16.793806 12.612836
C 1.880784 13.091801 9.373950
H 2.345176 12.288501 9.433379
C 1.809340 13.918462 10.459522
H 2.229078 13.672261 11.251910
O 8.432273 18.372550 18.480865
O 4.214350 16.124031 17.725918
C 8.797534 21.338647 16.469785
H 9.392312 22.048497 16.392527
C 9.024371 20.357436 17.384993
H 9.781686 20.395174 17.923817
C 8.124167 19.293558 17.518114
C 7.739258 17.153224 18.391325
H 8.141135 16.628474 17.680157
H 7.873217 16.666213 19.219371
C 6.318400 17.235890 18.141129
H 5.979930 17.730090 18.916283
C 5.499463 16.024652 18.129837
H 5.911164 15.489119 17.418669
C 5.585197 15.115324 19.320400
C 5.003815 15.444191 20.528792
H 4.548355 16.251085 20.608031
C 5.078832 14.615733 21.612383
H 4.677848 14.858340 22.414676
C 5.741483 13.436842 21.509372
H 5.782564 12.861773 22.240350
C 7.682995 21.277546 15.651644
H 7.539213 21.931686 15.005848
C 6.789042 20.244219 15.804773
H 6.037979 20.217263 15.257431
C 6.964975 19.237848 16.743951
C 3.877667 16.880066 16.543477
C 4.891290 17.951132 16.279611
H 4.729646 18.526201 15.566462
C 5.999577 18.147015 16.981073
C 3.766034 15.940188 15.362422
H 3.044442 15.323786 15.510995
H 3.594567 16.446968 14.564091
H 4.586756 15.453177 15.261393
C 2.523788 17.489280 16.854093
H 2.612201 18.109276 17.581109
H 2.194248 17.949335 16.079533
H 1.909362 16.793806 17.101714
C 6.346084 13.091801 20.340600
H 6.810476 12.288501 20.281171
C 6.274640 13.918462 19.255028
H 6.694378 13.672261 18.462640
O 3.966973 8.583800 1.328835
O -0.250950 10.832319 2.083782
C 4.332234 5.617703 3.339915
H 4.927012 4.907853 3.417173
C 4.559071 6.598914 2.424707
H 5.316386 6.561176 1.885883
C 3.658867 7.662792 2.291586
C 3.273958 9.803126 1.418375
H 3.675835 10.327876 2.129543
H 3.407917 10.290137 0.590329
C 1.853100 9.720460 1.668571
H 1.514630 9.226260 0.893417
C 1.034163 10.931698 1.679863
H 1.445864 11.467231 2.391031
C 1.119897 11.841026 0.489300
C 0.538515 11.512159 -0.719092
H 0.083055 10.705265 -0.798331
C 0.613532 12.340617 -1.802683
H 0.212548 12.098010 -2.604976
C 1.276183 13.519508 -1.699672
H 1.317264 14.094577 -2.430650
C 3.217695 5.678804 4.158056
H 3.073913 5.024664 4.803852
C 2.323742 6.712131 4.004927
H 1.572679 6.739088 4.552269
C 2.499675 7.718502 3.065749
C -0.587633 10.076284 3.266223
C 0.425990 9.005218 3.530089
H 0.264346 8.430149 4.243238
C 1.534277 8.809335 2.828627
C -0.699266 11.016162 4.447278
H -1.420858 11.632564 4.298705
H -0.870733 10.509382 5.245609
H 0.121456 11.503173 4.548307
C -1.941512 9.467070 2.955607
H -1.853099 8.847074 2.228591
H -2.271052 9.007015 3.730167
H -2.555938 10.162544 2.707986
C 1.880784 13.864549 -0.530900
H 2.345176 14.667849 -0.471471
C 1.809340 13.037888 0.554672
H 2.229078 13.284089 1.347060
O 0.498327 9.387100 11.233685
O 4.716250 7.138581 11.988632
C 0.133066 12.353197 13.244765
H -0.461712 13.063047 13.322023
C -0.093771 11.371986 12.329557
H -0.851086 11.409724 11.790733
C 0.806433 10.308108 12.196436
C 1.191342 8.167774 11.323225
H 0.789465 7.643024 12.034393
H 1.057383 7.680763 10.495179
C 2.612201 8.250440 11.573421
H 2.950670 8.744640 10.798267
C 3.431137 7.039202 11.584713
H 3.019436 6.503669 12.295881
C 3.345403 6.129874 10.394150
C 3.926785 6.458741 9.185758
H 4.382245 7.265635 9.106519
C 3.851768 5.630283 8.102167
H 4.252752 5.872890 7.299874
C 3.189117 4.451392 8.205178
H 3.148037 3.876323 7.474200
C 1.247605 12.292096 14.062906
H 1.391387 12.946236 14.708702
C 2.141558 11.258769 13.909777
H 2.892621 11.231813 14.457119
C 1.965625 10.252398 12.970599
C 5.052933 7.894616 13.171073
C 4.039310 8.965682 13.434939
H 4.200954 9.540751 14.148088
C 2.931023 9.161565 12.733477
C 5.164566 6.954738 14.352128
H 5.886158 6.338336 14.203555
H 5.336034 7.461518 15.150459
H 4.343844 6.467727 14.453157
C 6.406812 8.503830 12.860457
H 6.318400 9.123826 12.133441
H 6.736352 8.963885 13.635017
H 7.021238 7.808356 12.612836
C 2.584516 4.106351 9.373950
H 2.120124 3.303051 9.433379
C 2.655960 4.933012 10.459522
H 2.236222 4.686811 11.251910
O 4.963627 -0.401650 8.576015
O 9.181550 1.846869 7.821068
C 4.598366 -3.367747 6.564935
H 4.003588 -4.077597 6.487677
C 4.371529 -2.386536 7.480143
H 3.614214 -2.424274 8.018967
C 5.271733 -1.322658 7.613264
C 5.656642 0.817676 8.486475
H 5.254765 1.342426 7.775307
H 5.522683 1.304687 9.314521
C 7.077501 0.735010 8.236279
H 7.415970 0.240810 9.011433
C 7.896437 1.946248 8.224987
H 7.484736 2.481781 7.513819
C 7.810703 2.855576 9.415550
C 8.392085 2.526709 10.623942
H 8.847545 1.719815 10.703181
C 8.317068 3.355167 11.707533
H 8.718052 3.112560 12.509826
C 7.654417 4.534058 11.604522
H 7.613337 5.109127 12.335500
C 5.712905 -3.306646 5.746794
H 5.856687 -3.960786 5.100998
C 6.606858 -2.273319 5.899923
H 7.357921 -2.246362 5.352581
C 6.430925 -1.266948 6.839101
C 9.518233 1.090834 6.638627
C 8.504610 0.019768 6.374761
H 8.666254 -0.555301 5.661612
C 7.396323 -0.176115 7.076223
C 9.629866 2.030712 5.457572
H 10.351458 2.647114 5.606145
H 9.801334 1.523932 4.659241
H 8.809144 2.517723 5.356543
C 10.872112 0.481620 6.949243
H 10.783700 -0.138376 7.676259
H 11.201652 0.021565 6.174683
H 11.486538 1.177094 7.196864
C 7.049816 4.879099 10.435750
H 6.585424 5.682399 10.376321
C 7.121260 4.052438 9.350178
H 6.701522 4.298639 8.557790
