144
Lattice="9.780000 0.000000 0.000000 -1.983878 10.405773 0.000000 -4.487638 -3.339521 12.769502"
Fe 2.219505 1.794078 3.172710
O 2.972673 1.259904 4.815379
O 3.721618 0.875715 7.299047
O 0.711232 0.670288 3.309855
O -1.095864 -1.217246 3.214084
N 3.038844 0.353541 2.205293
N 1.528606 2.336479 1.307597
N 1.387244 3.201771 4.178181
N 3.773575 3.128412 2.994448
C 3.496989 0.083718 5.091200
C 3.892035 -0.176658 6.440937
C 4.407370 -1.396660 6.808698
C 4.595249 -2.402545 5.848432
C 4.278213 -2.170545 4.539558
C 3.741465 -0.925173 4.142426
C 3.522282 -0.719526 2.731396
C 2.897396 0.430693 0.744462
C 1.564629 1.095443 0.486518
C 4.159807 0.668742 8.647507
C 0.183666 2.975534 1.287166
C -0.355568 3.288219 -0.103433
C -0.356743 0.857191 4.059425
C -1.364159 -0.166892 4.044101
C -2.483893 -0.070312 4.848580
C -2.692580 1.062645 5.649228
C -1.769969 2.075011 5.637735
C -0.598976 1.989736 4.853688
C 0.302235 3.114087 4.871565
C 2.176141 4.439831 4.258629
C 3.626976 4.041991 4.156473
C -2.109402 -2.223591 3.134913
C 5.131675 2.523450 2.956140
C 6.259431 3.547092 2.893569
H 2.152825 2.946548 0.924512
H 4.644587 -1.553936 7.720441
H 4.947612 -3.257682 6.110207
H 4.422355 -2.856586 3.892144
H 3.758160 -1.438285 2.141445
H 3.609105 0.938746 0.357546
H 2.913609 -0.448009 0.356269
H 0.848669 0.522559 0.739354
H 1.467344 1.317787 -0.439271
H 3.692917 -0.068650 9.028038
H 5.095835 0.478021 8.652615
H 3.997517 1.447118 9.164672
H -0.436901 2.392690 1.721329
H 0.229742 3.791511 1.783899
H -1.211772 3.695332 -0.044693
H 0.241995 3.892799 -0.549089
H -0.418067 2.490484 -0.614213
H 3.648683 3.639607 2.197631
H -3.131398 -0.781282 4.857519
H -3.471814 1.142692 6.190655
H -1.923092 2.849752 6.172777
H 0.085245 3.848595 5.441085
H 1.946068 5.023894 3.533321
H 2.004985 4.889322 5.078431
H 3.894914 3.588068 4.957121
H 4.178467 4.809855 4.045378
H -2.923047 -1.839672 2.820783
H -1.842090 -2.913998 2.536023
H -2.258169 -2.600933 3.996854
H 5.241329 1.990326 3.745295
H 5.186438 1.950377 2.195077
H 7.101251 3.109150 2.873138
H 6.164197 4.078841 2.105691
H 6.220264 4.117750 3.655908
Fe 1.088979 5.272174 9.596792
O 0.335811 5.806348 7.954123
O -0.413135 6.190537 5.470455
O 2.597252 6.395964 9.459647
O 4.404348 8.283499 9.555418
N 0.269639 6.712711 10.564209
N 1.779878 4.729773 11.461905
N 1.921239 3.864481 8.591321
N -0.465091 3.937840 9.775054
C -0.188506 6.982534 7.678302
C -0.583552 7.242910 6.328565
C -1.098887 8.462912 5.960804
C -1.286765 9.468797 6.921070
C -0.969729 9.236797 8.229944
C -0.432982 7.991425 8.627076
C -0.213799 7.785779 10.038106
C 0.411088 6.635559 12.025040
C 1.743854 5.970810 12.282984
C -0.851324 6.397510 4.121995
C 3.124818 4.090718 11.482336
C 3.664051 3.778033 12.872935
C 3.665227 6.209061 8.710077
C 4.672643 7.233144 8.725401
C 5.792376 7.136564 7.920922
C 6.001063 6.003607 7.120274
C 5.078453 4.991241 7.131767
C 3.907460 5.076516 7.915814
C 3.006249 3.952165 7.897937
C 1.132343 2.626421 8.510873
C -0.318493 3.024261 8.613029
C 5.417886 9.289843 9.634589
C -1.823192 4.542802 9.813362
C -2.950948 3.519160 9.875933
H 1.155659 4.119705 11.844990
H -1.336103 8.620188 5.049061
H -1.639128 10.323934 6.659295
H -1.113871 9.922838 8.877358
H -0.449677 8.504537 10.628057
H -0.300622 6.127506 12.411956
H 0.394874 7.514262 12.413233
H 2.459815 6.543693 12.030148
H 1.841139 5.748465 13.208773
H -0.384434 7.134902 3.741464
H -1.787351 6.588231 4.116887
H -0.689034 5.619134 3.604830
H 3.745385 4.673562 11.048173
H 3.078742 3.274741 10.985603
H 4.520256 3.370920 12.814195
H 3.066488 3.173453 13.318591
H 3.726550 4.575769 13.383715
H -0.340199 3.426646 10.571871
H 6.439881 7.847535 7.911983
H 6.780298 5.923560 6.578847
H 5.231576 4.216500 6.596725
H 3.223239 3.217657 7.328417
H 1.362416 2.042358 9.236181
H 1.303499 2.176930 7.691071
H -0.586431 3.478184 7.812381
H -0.869984 2.256397 8.724124
H 6.231530 8.905924 9.948719
H 5.150574 9.980250 10.233479
H 5.566653 9.667185 8.772648
H -1.932845 5.075926 9.024207
H -1.877955 5.115875 10.574425
H -3.792767 3.957103 9.896364
H -2.855713 2.987411 10.663811
H -2.911781 2.948502 9.113594
Cl 2.593000 6.310179 0.975973
O 3.001550 7.314194 0.031924
O 1.335819 6.676984 1.573203
O 3.587411 6.193290 2.002258
O 2.427316 5.051350 0.312853
Cl 0.715484 0.756073 11.793529
O 0.306934 -0.247942 12.737578
O 1.972664 0.389268 11.196299
O -0.278927 0.872962 10.767244
O 0.881168 2.014903 12.456649
