176
Lattice="10.375000 0.000000 0.000000 0.000000 7.566000 0.000000 -4.754606 0.000000 20.743063"
C 3.061033 2.459707 12.572371
C 3.977511 1.659980 13.236149
C 3.545464 0.798213 14.233890
C 2.206711 0.759626 14.588597
C 1.267236 1.600966 13.966305
C -0.156980 1.626690 14.377017
C -0.579250 1.073615 15.594635
C -1.906807 1.094800 15.963862
C -2.845899 1.682678 15.136213
C -2.449306 2.250885 13.931041
C -1.115222 2.224404 13.551443
C -0.702076 2.807743 12.219739
C 0.735206 3.313908 12.186550
C 1.715104 2.437009 12.931226
C 0.597320 4.742369 12.688532
C -0.744401 5.201625 12.105652
O -1.493093 3.975933 11.900296
C -0.754677 1.844591 11.041533
C 0.199188 2.476352 10.016825
O 1.055969 3.356278 10.778096
C -1.547486 6.112571 12.997604
O -0.604936 5.840195 10.858994
C 1.063317 1.485962 9.265926
O -0.448974 3.282131 9.060570
H 3.375245 3.094494 11.844289
H 4.980376 1.717482 12.943672
H 4.197980 0.249678 14.727575
H 1.885235 0.075660 15.266895
H 0.089523 0.627978 16.221076
H -2.205495 0.680940 16.864111
H -3.792913 1.740180 15.370610
H -3.104332 2.685930 13.317047
H 1.311500 5.341596 12.383609
H 0.545951 4.804410 13.731908
H -1.685627 1.732614 10.703421
H -0.433260 0.953316 11.304970
H -1.079050 6.892626 13.171845
H -1.733952 5.629104 13.856366
H -2.460671 6.325176 12.591040
H 0.432547 0.832260 8.795059
H 1.586798 0.976014 9.915184
H 1.647713 2.012556 8.608371
H -0.166562 5.318898 10.413018
H -1.249054 3.404700 9.251406
C 0.182058 6.242707 18.542224
C -0.734420 5.442980 17.878446
C -0.302373 4.581213 16.880705
C 1.036380 4.542626 16.525999
C 1.975855 5.383966 17.148291
C 3.400071 5.409690 16.737578
C 3.822341 4.856615 15.519960
C 5.149898 4.877800 15.150734
C 6.088989 5.465678 15.978382
C 5.692397 6.033885 17.183554
C 4.358312 6.007404 17.563152
C 3.945167 6.590743 18.894857
C 2.507884 7.096908 18.928045
C 1.527987 6.220009 18.183369
C 2.645771 8.525369 18.426063
C 3.987491 8.984625 19.008943
O 4.736183 7.758933 19.214300
C 3.997768 5.627591 20.073063
C 3.043903 6.259352 21.097770
O 2.187122 7.139278 20.336499
C 4.790577 9.895571 18.116992
O 3.848027 9.623195 20.255601
C 2.179773 5.268962 21.848669
O 3.692065 7.065131 22.054025
H -0.132154 6.877494 19.270306
H -1.737285 5.500482 18.170924
H -0.954889 4.032678 16.387020
H 1.357856 3.858660 15.847700
H 3.153568 4.410978 14.893520
H 5.448586 4.463940 14.250485
H 7.036004 5.523180 15.743985
H 6.347423 6.468930 17.797548
H 1.931591 9.124596 18.730986
H 2.697140 8.587410 17.382687
H 4.928718 5.515614 20.411174
H 3.676351 4.736316 19.809626
H 4.322141 10.675626 17.942750
H 4.977043 9.412104 17.258229
H 5.703762 10.108176 18.523556
H 2.810544 4.615260 22.319536
H 1.656293 4.759014 21.199411
H 1.595377 5.795556 22.506224
H 3.409653 9.101898 20.701577
H 4.492145 7.187700 21.863189
C 2.559361 5.106293 8.170693
C 1.642883 5.906020 7.506915
C 2.074930 6.767787 6.509173
C 3.413683 6.806374 6.154467
C 4.353158 5.965034 6.776759
C 5.777374 5.939310 6.366046
C 6.199644 6.492385 5.148428
C 7.527201 6.471200 4.779202
C 8.466292 5.883322 5.606850
C 8.069700 5.315115 6.812022
C 6.735616 5.341596 7.191620
C 6.322470 4.758257 8.523325
C 4.885187 4.252092 8.556514
C 3.905290 5.128991 7.811838
C 5.023074 2.823631 8.054532
C 6.364795 2.364375 8.637412
O 7.113486 3.590067 8.842768
C 6.375071 5.721409 9.701531
C 5.421206 5.089648 10.726238
O 4.564425 4.209722 9.964968
C 7.167880 1.453429 7.745460
O 6.225330 1.725805 9.884070
C 4.557076 6.080038 11.477137
O 6.069368 4.283869 11.682493
H 2.245149 4.471506 8.898774
H 0.640018 5.848518 7.799392
H 1.422414 7.316322 6.015488
H 3.735159 7.490340 5.476169
H 5.530871 6.938022 4.521988
H 7.825889 6.885060 3.878953
H 9.413307 5.825820 5.372453
H 8.724726 4.880070 7.426017
H 4.308894 2.224404 8.359455
H 5.074443 2.761590 7.011155
H 7.306021 5.833386 10.039643
H 6.053654 6.612684 9.438094
H 6.699444 0.673374 7.571218
H 7.354346 1.936896 6.886697
H 8.081065 1.240824 8.152024
H 5.187847 6.733740 11.948005
H 4.033596 6.589986 10.827879
H 3.972680 5.553444 12.134692
H 5.786956 2.247102 10.330046
H 6.869448 4.161300 11.491657
C 5.438336 1.323293 2.200839
C 6.354814 2.123020 2.864617
C 5.922767 2.984787 3.862358
C 4.584014 3.023374 4.217065
C 3.644539 2.182034 3.594773
C 2.220323 2.156310 4.005486
C 1.798053 2.709385 5.223103
C 0.470496 2.688200 5.592330
C -0.468596 2.100322 4.764682
C -0.072003 1.532115 3.559510
C 1.262081 1.558596 3.179912
C 1.675227 0.975257 1.848207
C 3.112509 0.469092 1.815018
C 4.092407 1.345991 2.559694
C 2.974623 -0.959369 2.317000
C 1.632902 -1.418625 1.734120
O 0.884211 -0.192933 1.528764
C 1.622626 1.938409 0.670001
C 2.576491 1.306648 -0.354706
O 3.433272 0.426722 0.406564
C 0.829817 -2.329571 2.626072
O 1.772367 -2.057195 0.487462
C 3.440621 2.297038 -1.105605
O 1.928329 0.500869 -1.310962
H 5.752548 0.688506 1.472758
H 7.357679 2.065518 2.572140
H 6.575283 3.533322 4.356043
H 4.262538 3.707340 4.895363
H 2.466826 3.155022 5.849544
H 0.171808 3.102060 6.492579
H -1.415610 2.042820 4.999078
H -0.727029 1.097070 2.945515
H 3.688803 -1.558596 2.012077
H 2.923254 -1.021410 3.360376
H 0.691676 2.050386 0.331889
H 1.944043 2.829684 0.933438
H 1.298253 -3.109626 2.800314
H 0.643351 -1.846104 3.484835
H -0.083368 -2.542176 2.219508
H 2.809850 2.950740 -1.576473
H 3.964101 2.806986 -0.456347
H 4.025017 1.770444 -1.763160
H 2.210741 -1.535898 0.041486
H 1.128249 0.378300 -1.120125
