164
Lattice="13.989400 0.000000 0.000000 0.000000 9.125700 0.000000 -4.739721 0.000000 14.335789"
Br -2.537568 4.868926 15.245681
C -0.053026 3.599176 7.306952
C -0.402306 3.029732 6.086976
H 0.186762 3.079924 5.367319
C -1.616706 2.391846 5.935017
H -1.849687 2.019517 5.116443
C -2.476660 2.309715 6.995865
H -3.287968 1.867118 6.894081
C -2.156804 2.876421 8.224442
H -2.749098 2.811628 8.936931
C -0.945698 3.542597 8.382136
C -1.208754 4.199647 10.836423
C -2.551251 4.039035 11.181915
H -3.188091 3.810892 10.543973
C -2.904293 4.231587 12.499374
H -3.791652 4.118428 12.754551
C -1.963711 4.590227 13.454138
C -0.645585 4.790993 13.131583
H -0.028827 5.054725 13.775260
C -0.258020 4.587489 11.811257
C 0.983650 4.755402 11.136041
H 1.786423 5.013660 11.525974
C 0.787291 4.475243 9.834351
C 1.716657 4.622167 8.698957
C 3.154061 4.333795 9.005743
C 3.542550 3.070798 9.345501
H 2.907745 2.390933 9.374172
C 4.853622 2.782426 9.645119
H 5.100536 1.912747 9.863023
C 5.798021 3.782603 9.623615
C 5.414769 5.037386 9.263787
H 6.051019 5.715426 9.226514
C 4.105616 5.322108 8.954134
H 3.865383 6.186312 8.707558
C 7.164323 3.517045 9.971975
C 1.350596 5.618693 7.652444
H 0.522278 6.111481 7.767130
H 2.069105 6.116957 7.230972
N 1.256060 4.170445 7.367162
N -0.537471 4.114778 9.618454
N 8.243645 3.344569 10.270159
Br 2.422686 9.431776 6.258002
C -0.061855 8.162026 14.196732
C 0.287424 7.592582 15.416707
H -0.301644 7.642774 16.136364
C 1.501825 6.954696 15.568667
H 1.734805 6.582367 16.387240
C 2.361778 6.872565 14.507818
H 3.173086 6.429968 14.609603
C 2.041922 7.439271 13.279241
H 2.634216 7.374478 12.566753
C 0.830817 8.105447 13.121548
C 1.093872 8.762497 10.667261
C 2.436369 8.601885 10.321768
H 3.073209 8.373742 10.959711
C 2.789412 8.794437 9.004309
H 3.676770 8.681278 8.749132
C 1.848829 9.153077 8.049546
C 0.530703 9.353842 8.372101
H -0.086055 9.617575 7.728424
C 0.143138 9.150339 9.692427
C -1.098531 9.318252 10.367643
H -1.901305 9.576510 9.977709
C -0.902173 9.038093 11.669332
C -1.831539 9.185017 12.804727
C -3.268943 8.896645 12.497941
C -3.657432 7.633648 12.158183
H -3.022626 6.953783 12.129511
C -4.968503 7.345276 11.858565
H -5.215418 6.475597 11.640661
C -5.912903 8.345453 11.880068
C -5.529650 9.600236 12.239897
H -6.165901 10.278276 12.277170
C -4.220498 9.884958 12.549550
H -3.980265 10.749162 12.796125
C -7.279205 8.079895 11.531709
C -1.465478 10.181543 13.851239
H -0.637159 10.674331 13.736553
H -2.183987 10.679807 14.272711
N -1.370942 8.733295 14.136521
N 0.422589 8.677628 11.885229
N -8.358526 7.907419 11.233524
Br 11.787247 4.256774 -0.909893
C 9.302705 5.526524 7.028837
C 9.651985 6.095968 8.248813
H 9.062917 6.045776 8.968470
C 10.866385 6.733854 8.400772
H 11.099366 7.106183 9.219346
C 11.726339 6.815985 7.339924
H 12.537647 7.258582 7.441708
C 11.406483 6.249279 6.111347
H 11.998777 6.314072 5.398858
C 10.195377 5.583103 5.953653
C 10.458433 4.926053 3.499366
C 11.800930 5.086665 3.153874
H 12.437770 5.314808 3.791816
C 12.153972 4.894113 1.836415
H 13.041331 5.007272 1.581238
C 11.213390 4.535473 0.881651
C 9.895264 4.334707 1.204206
H 9.278506 4.070975 0.560529
C 9.507699 4.538211 2.524532
C 8.266029 4.370298 3.199748
H 7.463256 4.112040 2.809815
C 8.462388 4.650457 4.501438
C 7.533022 4.503533 5.636832
C 6.095618 4.791905 5.330046
C 5.707129 6.054902 4.990288
H 6.341934 6.734767 4.961617
C 4.396057 6.343274 4.690670
H 4.149143 7.212953 4.472766
C 3.451658 5.343097 4.712174
C 3.834910 4.088314 5.072002
H 3.198660 3.410274 5.109275
C 5.144063 3.803592 5.381655
H 5.384296 2.939388 5.628231
C 2.085356 5.608655 4.363814
C 7.899082 3.507007 6.683345
H 8.727401 3.014219 6.568659
H 7.180574 3.008743 7.104817
N 7.993619 4.955255 6.968627
N 9.787150 5.010922 4.717335
N 1.006034 5.781131 4.065630
Br 6.826993 -0.306076 8.077787
C 9.311534 0.963674 0.139057
C 8.962255 1.533118 -1.080918
H 9.551323 1.482926 -1.800575
C 7.747854 2.171004 -1.232878
H 7.514874 2.543333 -2.051451
C 6.887901 2.253135 -0.172029
H 6.076593 2.695732 -0.273814
C 7.207756 1.686429 1.056548
H 6.615463 1.751222 1.769036
C 8.418862 1.020253 1.214241
C 8.155807 0.363203 3.668528
C 6.813310 0.523815 4.014021
H 6.176470 0.751958 3.376078
C 6.460267 0.331263 5.331480
H 5.572908 0.444422 5.586657
C 7.400850 -0.027377 6.286243
C 8.718976 -0.228142 5.963688
H 9.335733 -0.491875 6.607365
C 9.106541 -0.024639 4.643362
C 10.348210 -0.192552 3.968146
H 11.150984 -0.450810 4.358080
C 10.151852 0.087607 2.666457
C 11.081218 -0.059317 1.531062
C 12.518622 0.229055 1.837848
C 12.907111 1.492052 2.177606
H 12.272305 2.171917 2.206278
C 14.218182 1.780424 2.477224
H 14.465097 2.650103 2.695128
C 15.162582 0.780247 2.455721
C 14.779329 -0.474536 2.095892
H 15.415580 -1.152576 2.058619
C 13.470177 -0.759258 1.786239
H 13.229944 -1.623462 1.539664
C 16.528884 1.045805 2.804080
C 10.715157 -1.055843 0.484550
H 9.886838 -1.548631 0.599236
H 11.433666 -1.554107 0.063077
N 10.620621 0.392405 0.199267
N 8.827090 0.448072 2.450560
N 17.608205 1.218281 3.102265
