332
Lattice="8.435000 0.000000 0.000000 0.000000 9.005000 0.000000 -3.964124 0.000000 41.936057"
N 0.485141 1.253496 -3.231593
N 0.592409 1.990105 -2.090932
N 2.021954 0.920311 1.060982
N 2.959443 1.063491 4.555094
N 3.569593 0.063936 5.274717
O -1.913338 3.352562 -8.750797
O -1.021466 5.266124 -8.004335
O 3.438659 1.700144 11.469511
O 4.910571 0.014408 11.505157
C -2.849309 2.976152 -10.904633
H -3.056142 3.375074 -11.750483
H -3.654672 2.629460 -10.504982
H -2.224758 2.260255 -11.033377
C -2.247294 4.000921 -10.009717
H -1.448888 4.372828 -10.416078
H -2.878362 4.722222 -9.856651
C -1.262757 4.084668 -7.852107
C -0.853082 3.314740 -6.653575
C -0.323733 4.001822 -5.569947
H -0.260662 4.929337 -5.594689
C 0.112676 3.306636 -4.448996
H 0.466006 3.771294 -3.725180
C 0.022319 1.918966 -4.403286
C -0.514203 1.222879 -5.473494
H -0.588913 0.297165 -5.441623
C -0.939528 1.924368 -6.595703
H -1.287677 1.457909 -7.320777
C 1.014095 -0.015309 -3.071816
C 1.148687 -1.095008 -4.103024
H 1.457164 -0.711395 -4.939229
H 0.285429 -1.508338 -4.259865
C 2.145626 -2.149494 -3.620340
H 2.050956 -2.948237 -4.162573
H 3.047699 -1.812707 -3.740277
C 1.940591 -2.510594 -2.165159
H 2.570349 -3.206681 -1.920671
H 1.045860 -2.867192 -2.051512
C 2.124692 -1.317432 -1.221597
H 1.735957 -1.524547 -0.357295
H 3.071582 -1.149038 -1.092854
C 1.473409 -0.098155 -1.782702
C 1.189471 1.182357 -1.206081
C 1.521183 1.746970 0.121195
C 1.323593 3.114829 0.337585
H 0.999117 3.658732 -0.343456
C 1.615342 3.639821 1.570086
H 1.480552 4.544824 1.737830
C 2.110710 2.816764 2.558099
H 2.316293 3.155352 3.399337
C 2.296720 1.462412 2.267902
C 2.869915 0.574519 3.307077
C 3.383971 -0.733907 3.213979
C 3.486666 -1.714552 2.082964
H 3.903001 -1.285014 1.319308
H 2.597207 -1.999110 1.819605
C 4.313249 -2.938331 2.493937
H 4.154443 -3.657831 1.862800
H 5.256238 -2.713207 2.458711
C 3.962550 -3.418298 3.901731
H 3.009988 -3.589393 3.957925
H 4.430041 -4.247659 4.087088
C 4.353787 -2.371016 4.938390
H 3.976941 -2.600644 5.801853
H 5.318941 -2.333195 5.025617
C 3.824061 -1.032873 4.483384
C 3.728646 0.241334 6.679575
C 2.845666 1.083302 7.356004
H 2.171006 1.522746 6.890513
C 2.977513 1.263402 8.718506
H 2.400963 1.837020 9.169319
C 3.974807 0.585325 9.420516
C 4.844987 -0.254841 8.754571
H 5.492468 -0.722201 9.230965
C 4.755044 -0.407026 7.368165
H 5.371872 -0.932017 6.910643
C 4.059799 0.839266 10.894988
C 5.103437 0.205314 12.936015
H 5.976578 0.597932 13.095372
H 4.432113 0.818555 13.274020
C 5.011558 -0.977943 13.595670
H 4.099288 -1.278710 13.591476
H 5.300894 -0.860878 14.505682
H 5.571141 -1.630805 13.163728
N 2.720579 3.249004 17.736436
N 2.827847 2.512395 18.877097
N 4.257391 3.582189 22.029011
N 5.194881 3.439010 25.523123
N 5.805031 4.438565 26.242746
O 0.322100 1.149939 12.217231
O 1.213972 -0.763624 12.963693
O 5.674097 2.802356 32.437540
O 7.146009 4.488092 32.473185
C -0.613871 1.526348 10.063396
H -0.820705 1.127426 9.217545
H -1.419234 1.873040 10.463046
H 0.010680 2.242245 9.934652
C -0.011856 0.501579 10.958311
H 0.786549 0.129672 10.551951
H -0.642924 -0.219722 11.111378
C 0.972681 0.417832 13.115921
C 1.382356 1.187760 14.314454
C 1.911705 0.500678 15.398081
H 1.974776 -0.426837 15.373339
C 2.348114 1.195864 16.519032
H 2.701443 0.731206 17.242848
C 2.257756 2.583535 16.564742
C 1.721235 3.279621 15.494534
H 1.646525 4.205335 15.526406
C 1.295910 2.578132 14.372325
H 0.947760 3.044591 13.647251
C 3.249533 4.517809 17.896212
C 3.384125 5.597508 16.865005
H 3.692601 5.213895 16.028800
H 2.520867 6.010838 16.708164
C 4.381064 6.651994 17.347689
H 4.286394 7.450737 16.805455
H 5.283137 6.315207 17.227751
C 4.176029 7.013094 18.802870
H 4.805787 7.709181 19.047357
H 3.281298 7.369692 18.916516
C 4.360130 5.819932 19.746431
H 3.971395 6.027047 20.610733
H 5.307019 5.651538 19.875175
C 3.708847 4.600655 19.185327
C 3.424908 3.320144 19.761947
C 3.756621 2.755530 21.089224
C 3.559031 1.387671 21.305614
H 3.234555 0.843769 20.624572
C 3.850779 0.862679 22.538114
H 3.715989 -0.042323 22.705859
C 4.346148 1.685736 23.526128
H 4.551730 1.347148 24.367365
C 4.532157 3.040088 23.235930
C 5.105352 3.927981 24.275106
C 5.619409 5.236408 24.182008
C 5.722104 6.217052 23.050992
H 6.138439 5.787514 22.287337
H 4.832645 6.501610 22.787634
C 6.548687 7.440832 23.461966
H 6.389880 8.160331 22.830828
H 7.491676 7.215707 23.426739
C 6.197988 7.920798 24.869759
H 5.245426 8.091893 24.925953
H 6.665479 8.750159 25.055116
C 6.589225 6.873517 25.906418
H 6.212379 7.103144 26.769882
H 7.554379 6.835696 25.993645
C 6.059499 5.535374 25.451412
C 5.964084 4.261166 27.647603
C 5.081104 3.419199 28.324032
H 4.406443 2.979755 27.858542
C 5.212951 3.239099 29.686534
H 4.636401 2.665480 30.137347
C 6.210245 3.917175 30.388544
C 7.080425 4.757342 29.722600
H 7.727906 5.224701 30.198993
C 6.990482 4.909526 28.336193
H 7.607310 5.434518 27.878671
C 6.295237 3.663234 31.863016
C 7.338874 4.297186 33.904044
H 8.212016 3.904568 34.063401
H 6.667550 3.683946 34.242048
C 7.246996 5.480443 34.563698
H 6.334726 5.781210 34.559504
H 7.536332 5.363378 35.473710
H 7.806579 6.133306 34.131756
N 3.985735 7.751504 45.167649
N 3.878466 7.014895 44.026988
N 2.448922 8.084689 40.875074
N 1.511432 7.941510 37.380962
N 0.901283 8.941065 36.661339
O 6.384213 5.652439 50.686854
O 5.492341 3.738876 49.940392
O 1.032217 7.304856 30.466545
O -0.439695 8.990592 30.430899
C 7.320184 6.028848 52.840689
H 7.527018 5.629926 53.686540
H 8.125547 6.375540 52.441039
H 6.695633 6.744745 52.969433
C 6.718170 5.004079 51.945774
H 5.919764 4.632172 52.352134
H 7.349237 4.282778 51.792707
C 5.733632 4.920332 49.788164
C 5.323957 5.690260 48.589631
C 4.794609 5.003178 47.506004
H 4.731538 4.075663 47.530746
C 4.358199 5.698364 46.385053
H 4.004870 5.233706 45.661237
C 4.448557 7.086035 46.339343
C 4.985078 7.782121 47.409551
H 5.059789 8.707835 47.377679
C 5.410404 7.080632 48.531760
H 5.758553 7.547091 49.256834
C 3.456780 9.020309 45.007873
C 3.322189 10.100008 46.039080
H 3.013712 9.716395 46.875285
H 4.185446 10.513338 46.195921
C 2.325250 11.154494 45.556396
H 2.419919 11.953237 46.098630
H 1.423176 10.817707 45.676334
C 2.530285 11.515594 44.101215
H 1.900527 12.211681 43.856728
H 3.425016 11.872192 43.987569
C 2.346184 10.322432 43.157654
H 2.734918 10.529547 42.293352
H 1.399294 10.154038 43.028910
C 2.997466 9.103155 43.718758
C 3.281405 7.822644 43.142138
C 2.949692 7.258030 41.814861
C 3.147282 5.890171 41.598471
H 3.471758 5.346269 42.279513
C 2.855534 5.365179 40.365971
H 2.990324 4.460177 40.198226
C 2.360166 6.188236 39.377957
H 2.154583 5.849648 38.536720
C 2.174156 7.542588 39.668155
C 1.600961 8.430481 38.628979
C 1.086904 9.738908 38.722077
C 0.984209 10.719552 39.853093
H 0.567874 10.290014 40.616748
H 1.873668 11.004110 40.116451
C 0.157627 11.943332 39.442119
H 0.316433 12.662831 40.073257
H -0.785362 11.718207 39.477346
C 0.508325 12.423298 38.034326
H 1.460888 12.594393 37.978132
H 0.040834 13.252659 37.848969
C 0.117088 11.376017 36.997667
H 0.493935 11.605644 36.134203
H -0.848065 11.338196 36.910440
C 0.646814 10.037874 37.452673
C 0.742230 8.763666 35.256482
C 1.625210 7.921699 34.580053
H 2.299870 7.482255 35.045543
C 1.493362 7.741599 33.217550
H 2.069912 7.167980 32.766738
C 0.496068 8.419675 32.515541
C -0.374111 9.259842 33.181485
H -1.021592 9.727201 32.705092
C -0.284168 9.412026 34.567891
H -0.900997 9.937018 35.025414
C 0.411076 8.165734 31.041069
C -0.632561 8.799686 29.000041
H -1.505703 8.407068 28.840684
H 0.038763 8.186446 28.662037
C -0.540683 9.982943 28.340387
H 0.371588 10.283710 28.344581
H -0.830019 9.865878 27.430375
H -1.100266 10.635806 28.772328
N 1.750297 5.755996 24.199621
N 1.643029 6.492605 23.058960
N 0.213484 5.422811 19.907046
N -0.724006 5.565991 16.412934
N -1.334155 4.566436 15.693311
O 4.148775 7.855062 29.718825
O 3.256903 9.768624 28.972363
O -1.203221 6.202644 9.498517
O -2.675133 4.516908 9.462871
C 5.084746 7.478653 31.872661
H 5.291580 7.877574 32.718511
H 5.890110 7.131960 31.473011
H 4.460196 6.762755 32.001405
C 4.482732 8.503422 30.977746
H 3.684326 8.875328 31.384106
H 5.113799 9.224722 30.824679
C 3.498195 8.587168 28.820136
C 3.088519 7.817241 27.621603
C 2.559171 8.504322 26.537975
H 2.496100 9.431837 26.562718
C 2.122761 7.809136 25.417025
H 1.769432 8.273794 24.693208
C 2.213119 6.421466 25.371314
C 2.749641 5.725379 26.441522
H 2.824351 4.799665 26.409651
C 3.174966 6.426869 27.563731
H 3.523115 5.960410 28.288806
C 1.221343 4.487192 24.039844
C 1.086751 3.407492 25.071052
H 0.778274 3.791105 25.907257
H 1.950008 2.994163 25.227893
C 0.089812 2.353007 24.588368
H 0.184481 1.554263 25.130601
H -0.812262 2.689794 24.708305
C 0.294847 1.991906 23.133187
H -0.334911 1.295820 22.888700
H 1.189578 1.635308 23.019540
C 0.110746 3.185069 22.189626
H 0.499480 2.977954 21.325324
H -0.836144 3.353462 22.060882
C 0.762028 4.404346 22.750730
C 1.045967 5.684857 22.174109
C 0.714255 6.249470 20.846833
C 0.911844 7.617330 20.630443
H 1.236321 8.161232 21.311485
C 0.620096 8.142321 19.397942
H 0.754886 9.047324 19.230198
C 0.124728 7.319264 18.409929
H -0.080855 7.657852 17.568692
C -0.061282 5.964912 18.700126
C -0.634477 5.077019 17.660951
C -1.148534 3.768593 17.754049
C -1.251229 2.787948 18.885064
H -1.667563 3.217487 19.648720
H -0.361769 2.503390 19.148423
C -2.077811 1.564169 18.474091
H -1.919005 0.844669 19.105229
H -3.020800 1.789294 18.509317
C -1.727113 1.084202 17.066298
H -0.774550 0.913107 17.010103
H -2.194604 0.254842 16.880940
C -2.118349 2.131484 16.029638
H -1.741503 1.901856 15.166175
H -3.083503 2.169305 15.942411
C -1.588624 3.469627 16.484645
C -1.493208 4.743834 14.288453
C -0.610228 5.585802 13.612025
H 0.064432 6.025246 14.077515
C -0.742075 5.765902 12.249522
H -0.165525 6.339520 11.798710
C -1.739369 5.087825 11.547513
C -2.609549 4.247659 12.213457
H -3.257030 3.780299 11.737064
C -2.519606 4.095474 13.599863
H -3.136435 3.570483 14.057386
C -1.824362 5.341766 10.073041
C -2.867999 4.707814 8.032013
H -3.741141 5.100432 7.872656
H -2.196675 5.321055 7.694008
C -2.776121 3.524557 7.372359
H -1.863850 3.223790 7.376552
H -3.065457 3.641622 6.462346
H -3.335704 2.871695 7.804300
