84
Lattice="7.458400 0.000000 0.000000 2.059987 8.260929 0.000000 2.843165 0.669116 15.340715"
Br 12.191107 6.093167 -0.593072
Br 10.477719 10.344550 2.675421
N -1.281615 0.784283 10.253734
O 7.692964 5.396130 3.430184
O -2.356752 0.618398 9.689195
O -1.087222 0.548616 11.422696
C 7.590273 5.917520 2.126223
H 6.836694 6.525460 2.067928
H 7.452013 5.198312 1.489583
C 8.868013 6.646461 1.811738
C 9.802911 6.087592 0.949590
H 9.666900 5.238675 0.596754
C 10.943811 6.806844 0.621299
C 11.172420 8.089408 1.124474
H 11.920585 8.586191 0.885159
C 10.208515 8.582501 2.012702
C 9.071106 7.910226 2.319516
H 8.431252 8.300966 2.868714
C 6.538816 4.834719 3.987052
C 6.653554 4.448608 5.286410
H 7.460275 4.560735 5.735893
C 5.580039 3.895141 5.930720
H 5.667367 3.645710 6.822016
C 4.352612 3.695010 5.281808
C 4.290869 4.087955 3.968643
H 3.494369 3.963660 3.505353
C 5.354289 4.657832 3.302856
H 5.274732 4.916417 2.413094
C 3.188598 3.139778 5.961402
H 2.427998 3.000683 5.442886
C 3.106255 2.814754 7.240817
H 3.878950 2.938310 7.743993
C 1.948768 2.283633 7.961831
C 2.052300 2.127083 9.334825
H 2.844428 2.369421 9.758229
C 1.013264 1.622417 10.094190
H 1.100297 1.508018 11.013099
C -0.149930 1.295961 9.446812
C -0.308155 1.432662 8.092227
H -1.108834 1.202357 7.679562
C 0.773147 1.929669 7.346668
H 0.692251 2.019977 6.424691
Br 0.170444 2.836878 15.933787
Br 1.883833 -1.414505 12.665294
N 13.643166 8.145762 5.086981
O 4.668588 3.533915 11.910531
O 14.718304 8.311647 5.651519
O 13.448773 8.381429 3.918019
C 4.771278 3.012525 13.214492
H 5.524857 2.404585 13.272786
H 4.909539 3.731733 13.851131
C 3.493539 2.283584 13.528976
C 2.558641 2.842453 14.391124
H 2.694652 3.691370 14.743961
C 1.417741 2.123202 14.719416
C 1.189132 0.840637 14.216240
H 0.440967 0.343854 14.455555
C 2.153037 0.347544 13.328013
C 3.290445 1.019819 13.021199
H 3.930300 0.629079 12.472001
C 5.822735 4.095326 11.353663
C 5.707997 4.481437 10.054304
H 4.901277 4.369310 9.604821
C 6.781513 5.034904 9.409994
H 6.694185 5.284335 8.518699
C 8.008940 5.235035 10.058907
C 8.070683 4.842090 11.372072
H 8.867183 4.966386 11.835361
C 7.007263 4.272213 12.037859
H 7.086820 4.013628 12.927620
C 9.172953 5.790267 9.379313
H 9.933554 5.929362 9.897829
C 9.255297 6.115291 8.099897
H 8.482601 5.991735 7.596722
C 10.412784 6.646412 7.378884
C 10.309252 6.802962 6.005890
H 9.517124 6.560624 5.582486
C 11.348288 7.307628 5.246524
H 11.261255 7.422027 4.327616
C 12.511481 7.634084 5.893903
C 12.669707 7.497383 7.248488
H 13.470385 7.727688 7.661153
C 11.588404 7.000376 7.994046
H 11.669301 6.910068 8.916023
