92
Lattice="7.093400 0.000000 0.000000 3.499479 8.232269 0.000000 1.712703 -0.543671 15.758883"
Cl 13.739614 4.752206 4.057597
N 9.215991 2.462542 3.499890
N 9.308810 2.121595 4.863822
C 8.270546 1.359628 5.116437
C 7.453014 1.176575 3.955795
O 7.732401 2.067748 1.711887
C 8.081972 1.931990 2.914763
C 10.209488 3.283228 2.929261
C 11.367607 3.541208 3.660001
H 11.494716 3.158325 4.497585
C 12.324472 4.376639 3.115374
C 12.179778 4.944321 1.860651
H 12.834687 5.506236 1.512853
C 11.032037 4.654040 1.135585
H 10.924451 5.010251 0.283660
C 10.046697 3.841391 1.664138
H 9.274719 3.667256 1.175613
C 8.073970 0.856491 6.504637
H 8.788900 1.169807 7.063131
H 8.069997 -0.104019 6.498963
H 7.236277 1.178133 6.845659
C 6.258728 0.455011 3.753136
C 5.760636 -0.508558 4.766747
C 6.439035 -1.708965 4.937888
H 7.192934 -1.894665 4.426670
C 5.989817 -2.633653 5.874439
H 6.443990 -3.439741 5.974193
C 4.880828 -2.376747 6.660177
C 4.208526 -1.169450 6.480210
H 3.460515 -0.980756 7.000096
C 4.635891 -0.245515 5.541611
H 4.170790 0.551963 5.428935
C 4.406239 -3.384944 7.678831
H 4.653155 -4.268321 7.394068
H 3.450882 -3.331808 7.761250
H 4.811596 -3.196932 8.528707
N 5.598396 0.611789 2.621017
H 5.890228 1.230697 2.100659
C 4.443657 -0.124914 2.141317
H 3.736375 0.494996 1.902097
H 4.111691 -0.707266 2.842902
C 4.826165 -0.949347 0.935447
H 5.479030 -1.623072 1.183492
H 4.045558 -1.395347 0.572047
O 5.378567 -0.059084 -0.029312
H 5.851732 -0.526476 -0.488525
Cl -1.434033 2.936392 11.701286
N 3.089590 5.226056 12.258993
N 2.996772 5.567003 10.895061
C 4.035036 6.328970 10.642446
C 4.852567 6.512024 11.803088
O 4.573181 5.620851 14.046996
C 4.223610 5.756608 12.844120
C 2.096093 4.405370 12.829622
C 0.937975 4.147390 12.098882
H 0.810866 4.530274 11.261298
C -0.018890 3.311960 12.643509
C 0.125803 2.744277 13.898232
H -0.529106 2.182363 14.246030
C 1.273545 3.034559 14.623298
H 1.381131 2.678347 15.475223
C 2.258884 3.847207 14.094745
H 3.030863 4.021342 14.583270
C 4.231612 6.832107 9.254246
H 3.516682 6.518791 8.695752
H 4.235585 7.792617 9.259920
H 5.069304 6.510465 8.913224
C 6.046854 7.233588 12.005747
C 6.544946 8.197157 10.992136
C 5.866546 9.397563 10.820995
H 5.112647 9.583263 11.332213
C 6.315764 10.322251 9.884444
H 5.861592 11.128339 9.784690
C 7.424753 10.065345 9.098706
C 8.097056 8.858049 9.278673
H 8.845067 8.669354 8.758787
C 7.669691 7.934113 10.217272
H 8.134792 7.136635 10.329948
C 7.899343 11.073543 8.080052
H 7.652427 11.956920 8.364815
H 8.854700 11.020406 7.997633
H 7.493986 10.885531 7.230176
N 6.707186 7.076809 13.137866
H 6.415353 6.457901 13.658224
C 7.861925 7.813512 13.617566
H 8.569206 7.193602 13.856786
H 8.193891 8.395864 12.915981
C 7.479416 8.637945 14.823436
H 6.826552 9.311670 14.575391
H 8.260024 9.083946 15.186836
O 6.927015 7.747683 15.788195
H 6.453850 8.215074 16.247408
