236
Lattice="19.935600 0.000000 0.000000 0.000000 12.438900 0.000000 -0.087789 0.000000 9.598799"
C 12.519270 1.487692 13.545825
H 12.494947 1.327231 14.461550
C 11.449343 2.066101 12.955498
H 10.707906 2.312392 13.460395
C 11.471838 2.290001 11.585750
H 10.738785 2.689290 11.173961
C 12.553649 1.930517 10.833204
H 12.538508 2.087247 9.916519
C 13.695866 1.327231 11.410092
C 14.827526 0.906796 10.634509
C 15.879979 0.305997 11.304505
C 15.853069 0.124389 12.699210
H 16.583980 -0.262461 13.127317
C 14.784905 0.502532 13.420080
H 14.778706 0.352021 14.337725
C 13.676209 1.119501 12.818236
C 14.778485 1.049843 9.130377
H 14.377761 1.916834 8.914404
C 13.935111 -0.047268 8.487258
C 14.139948 -1.378230 8.759864
H 14.794171 -1.613325 9.377066
C 13.411285 -2.378318 8.151300
H 13.579510 -3.271431 8.350955
C 12.435534 -2.041223 7.247093
C 12.206914 -0.713993 6.959129
H 11.546458 -0.477654 6.347685
C 12.957799 0.267436 7.579211
H 12.796995 1.160549 7.374757
C 16.412273 1.789958 7.597449
H 15.769761 2.408171 7.334442
C 17.698928 1.782494 6.898657
C 17.936502 2.689290 5.902301
H 17.270090 3.298796 5.680569
C 19.134547 2.730339 5.214067
H 19.268098 3.357259 4.540232
C 20.126202 1.835982 5.534667
C 19.908094 0.925454 6.538702
H 20.581379 0.328387 6.771952
C 18.713286 0.885650 7.200059
H 18.577846 0.247534 7.862376
C 11.760731 -4.317542 6.874660
H 11.584877 -4.484223 7.814382
H 12.657909 -4.623539 6.670205
C 10.758008 -5.032779 6.020366
H 9.887500 -4.654636 6.164348
H 10.745916 -5.964453 6.252657
H 10.999709 -4.936999 5.096002
C 21.624401 2.683071 3.851998
H 21.572143 3.602305 4.160119
H 20.977435 2.561170 3.138807
C 23.000908 2.383293 3.355740
H 23.027982 1.487692 3.011143
H 23.626265 2.467878 4.077570
H 23.230569 3.001507 2.657907
N 16.133351 0.999839 8.537171
O 16.990361 -0.170413 10.675784
O 11.633367 -2.937571 6.588615
O 21.345837 1.787967 4.927063
H 16.835517 0.124389 9.819571
C 7.284647 7.707142 0.852373
H 7.308970 7.546681 -0.063352
C 8.354574 8.285551 1.442699
H 9.096012 8.531842 0.937803
C 8.332079 8.509451 2.812448
H 9.065133 8.908740 3.224236
C 7.250269 8.149967 3.564994
H 7.265409 8.306697 4.481679
C 6.108052 7.546681 2.988106
C 4.976391 7.126246 3.763689
C 3.923938 6.525447 3.093693
C 3.950848 6.343839 1.698987
H 3.219938 5.956989 1.270881
C 5.019012 6.721982 0.978118
H 5.025212 6.571471 0.060472
C 6.127708 7.338951 1.579962
C 5.025432 7.269293 5.267821
H 5.426156 8.136284 5.483794
C 5.868807 6.172182 5.910940
C 5.663970 4.841220 5.638334
H 5.009746 4.606125 5.021132
C 6.392632 3.841132 6.246898
H 6.224407 2.948019 6.047243
C 7.368383 4.178227 7.151105
C 7.597003 5.505457 7.439069
H 8.257459 5.741796 8.050512
C 6.846118 6.486886 6.818986
H 7.006922 7.379999 7.023441
C 3.391645 8.009408 6.800749
H 4.034156 8.627621 7.063756
C 2.104989 8.001944 7.499541
C 1.867415 8.908740 8.495897
H 2.533828 9.518246 8.717629
C 0.669370 8.949789 9.184130
H 0.535819 9.576709 9.857966
C -0.322285 8.055432 8.863531
C -0.104177 7.144904 7.859496
H -0.777462 6.547837 7.626245
C 1.090632 7.105100 7.198139
H 1.226071 6.466984 6.535822
C 8.043186 1.901908 7.523538
H 8.219041 1.735227 6.583816
H 7.146009 1.595911 7.727993
C 9.045909 1.186671 8.377831
H 9.916418 1.564814 8.233849
H 9.058001 0.254997 8.145540
H 8.804208 1.282451 9.302196
C -1.820484 8.902521 10.546200
H -1.768226 9.821755 10.238079
H -1.173518 8.780620 11.259391
C -3.196991 8.602743 11.042458
H -3.224065 7.707142 11.387055
H -3.822347 8.687328 10.320628
H -3.426652 9.220957 11.740291
N 3.670566 7.219289 5.861026
O 2.813557 6.049037 3.722414
O 8.170550 3.281879 7.809583
O -1.541920 8.007417 9.471135
H 2.968400 6.343839 4.578627
C 7.328541 10.951208 -3.947026
H 7.352865 11.111669 -4.862751
C 8.398468 10.372799 -3.356700
H 9.139906 10.126508 -3.861597
C 8.375973 10.148899 -1.986951
H 9.109027 9.749610 -1.575163
C 7.294163 10.508383 -1.234405
H 7.309303 10.351653 -0.317720
C 6.151946 11.111669 -1.811293
C 5.020285 11.532104 -1.035710
C 3.967833 12.132903 -1.705707
C 3.994743 12.314511 -3.100412
H 3.263832 12.701361 -3.528518
C 5.062906 11.936368 -3.821282
H 5.069106 12.086879 -4.738927
C 6.171603 11.319399 -3.219437
C 5.069326 11.389057 0.468421
H 5.470050 10.522066 0.684394
C 5.912701 12.486168 1.111541
C 5.707864 13.817130 0.838935
H 5.053640 14.052225 0.221732
C 6.436526 14.817218 1.447499
H 6.268301 15.710331 1.247844
C 7.412278 14.480123 2.351706
C 7.640897 13.152893 2.639670
H 8.301353 12.916554 3.251113
C 6.890012 12.171464 2.019587
H 7.050817 11.278351 2.224042
C 3.435539 10.648942 2.001350
H 4.078050 10.030729 2.264357
C 2.148884 10.656406 2.700142
C 1.911309 9.749610 3.696497
H 2.577722 9.140104 3.918230
C 0.713265 9.708561 4.384731
H 0.579713 9.081641 5.058567
C -0.278390 10.602918 4.064131
C -0.060283 11.513446 3.060097
H -0.733568 12.110513 2.826846
C 1.134526 11.553250 2.398740
H 1.269965 12.191366 1.736423
C 8.087081 16.756442 2.724139
H 8.262935 16.923123 1.784417
H 7.189903 17.062439 2.928593
C 9.089803 17.471679 3.578432
H 9.960312 17.093536 3.434450
H 9.101895 18.403353 3.346141
H 8.848102 17.375899 4.502796
C -1.776590 9.755829 5.746801
H -1.724331 8.836595 5.438679
H -1.129623 9.877730 6.459991
C -3.153096 10.055607 6.243059
H -3.180171 10.951208 6.587655
H -3.778453 9.971022 5.521229
H -3.382757 9.437393 6.940891
N 3.714460 11.439061 1.061627
O 2.857451 12.609313 -1.076985
O 8.214445 15.376471 3.010183
O -1.498025 10.650933 4.671735
H 3.012295 12.314511 -0.220772
C 12.563165 4.731758 8.746425
H 12.538841 4.892219 9.662151
C 11.493237 4.153349 8.156099
H 10.751800 3.907058 8.660996
C 11.515733 3.929449 6.786351
H 10.782679 3.530160 6.374562
C 12.597543 4.288933 6.033805
H 12.582403 4.132203 5.117120
C 13.739760 4.892219 6.610693
C 14.871420 5.312654 5.835110
C 15.923873 5.913453 6.505106
C 15.896963 6.095061 7.899811
H 16.627874 6.481911 8.327918
C 14.828799 5.716918 8.620681
H 14.822600 5.867429 9.538326
C 13.720103 5.099949 8.018836
C 14.822380 5.169607 4.330978
H 14.421656 4.302616 4.115005
C 13.979005 6.266718 3.687858
C 14.183842 7.597680 3.960464
H 14.838066 7.832775 4.577667
C 13.455180 8.597768 3.351900
H 13.623404 9.490881 3.551555
C 12.479428 8.260673 2.447694
C 12.250809 6.933443 2.159730
H 11.590352 6.697104 1.548286
C 13.001694 5.952014 2.779812
H 12.840889 5.058901 2.575358
C 16.456167 4.429492 2.798050
H 15.813656 3.811279 2.535043
C 17.742822 4.436956 2.099257
C 17.980397 3.530160 1.102902
H 17.313984 2.920654 0.881170
C 19.178441 3.489111 0.414668
H 19.311992 2.862191 -0.259168
C 20.170096 4.383468 0.735268
C 19.951988 5.293996 1.739302
H 20.625273 5.891063 1.972553
C 18.757180 5.333800 2.400660
H 18.621740 5.971916 3.062977
C 11.804625 10.536992 2.075260
H 11.628771 10.703673 3.014983
H 12.701803 10.842989 1.870806
C 10.801903 11.252229 1.220967
H 9.931394 10.874086 1.364949
H 10.789810 12.183903 1.453258
H 11.043603 11.156449 0.296603
C 21.668295 3.536379 -0.947401
H 21.616037 2.617145 -0.639280
H 21.021329 3.658280 -1.660592
C 23.044802 3.836157 -1.443659
H 23.071876 4.731758 -1.788256
H 23.670159 3.751572 -0.721830
H 23.274463 3.217943 -2.141492
N 16.177246 5.219611 3.737772
O 17.034255 6.389863 5.876384
O 11.677261 9.157021 1.789216
O 21.389731 4.431483 0.127664
H 16.879411 6.095061 5.020172
