232
Lattice="9.846000 0.000000 0.000000 0.000000 16.366000 0.000000 0.000000 0.000000 17.646000"
C 4.515376 7.165362 17.158088
C 4.923985 6.193058 18.016566
C 5.421208 6.496320 19.400365
C 4.699496 7.307255 20.269078
H 3.880309 7.692020 19.980566
C 5.166196 7.561747 21.559000
H 4.667989 8.112626 22.151024
Br 6.977368 7.310201 23.732388
C 6.358547 7.003011 21.962035
C 7.085182 6.199441 21.121909
H 7.907323 5.823023 21.415186
C 6.615527 5.937257 19.840280
H 7.113735 5.372958 19.260609
C 4.916108 4.745649 17.661705
C 4.324363 3.817860 18.520712
H 3.912800 4.119322 19.322370
C 4.326332 2.460792 18.224436
H 3.909847 1.839538 18.810636
Br 4.986408 0.167915 16.692234
C 4.936784 2.028893 17.073740
C 5.544283 2.921331 16.205204
H 5.968645 2.608740 15.415546
C 5.526560 4.268253 16.501128
H 5.937138 4.881978 15.904340
C 3.827140 6.848025 15.869048
C 4.224919 7.463878 14.694354
H 4.923000 8.107716 14.722058
C 3.631205 7.163398 13.478721
H 3.914770 7.593824 12.680416
Br 1.875368 5.709279 11.777046
C 2.613128 6.222353 13.453134
C 2.150366 5.639069 14.602947
H 1.421762 5.029272 14.575596
C 2.762788 5.953133 15.814522
H 2.449685 5.549711 16.615474
C 4.703434 8.625700 17.418896
C 5.899723 9.148594 17.889338
H 6.626358 8.562691 18.067739
C 6.054305 10.508118 18.103384
H 6.877431 10.855568 18.427718
Br 5.111846 13.222746 18.148205
C 4.988968 11.350148 17.837459
C 3.804494 10.873243 17.359429
H 3.087706 11.467656 17.173087
C 3.656804 9.506191 17.147677
H 2.833679 9.169870 16.814873
C 0.407624 9.200638 8.335088
C -0.000985 10.172942 9.193566
C -0.498208 9.869680 10.577365
C 0.223504 9.058745 11.446078
H 1.042691 8.673980 11.157566
C -0.243196 8.804253 12.736001
H 0.255011 8.253374 13.328024
Br -2.054368 9.055799 14.909388
C -1.435547 9.362989 13.139035
C -2.162182 10.166559 12.298909
H -2.984323 10.542977 12.592186
C -1.692527 10.428743 11.017280
H -2.190735 10.993042 10.437609
C 0.006892 11.620351 8.838705
C 0.598637 12.548140 9.697712
H 1.010200 12.246678 10.499370
C 0.596668 13.905208 9.401436
H 1.013153 14.526462 9.987636
Br -0.063408 16.198085 7.869234
C -0.013784 14.337107 8.250740
C -0.621283 13.444669 7.382204
H -1.045645 13.757260 6.592546
C -0.603560 12.097747 7.678128
H -1.014138 11.484022 7.081340
C 1.095860 9.517975 7.046048
C 0.698081 8.902122 5.871354
H 0.000000 8.258284 5.899058
C 1.291795 9.202602 4.655721
H 1.008230 8.772176 3.857416
Br 3.047632 10.656721 2.954046
C 2.309872 10.143647 4.630134
C 2.772634 10.726931 5.779947
H 3.501238 11.336728 5.752596
C 2.160212 10.412867 6.991522
H 2.473315 10.816289 7.792474
C 0.219566 7.740300 8.595896
C -0.976723 7.217406 9.066338
H -1.703358 7.803309 9.244739
C -1.131305 5.857882 9.280384
H -1.954431 5.510432 9.604718
Br -0.188846 3.143254 9.325205
C -0.065968 5.015852 9.014459
C 1.118506 5.492757 8.536429
H 1.835294 4.898344 8.350087
C 1.266196 6.859809 8.324677
H 2.089321 7.196130 7.991873
C 9.438376 1.017638 0.487912
C 9.846985 1.989942 -0.370566
C 10.344208 1.686680 -1.754365
C 9.622496 0.875745 -2.623078
H 8.803309 0.490980 -2.334566
C 10.089196 0.621253 -3.913001
H 9.590989 0.070374 -4.505024
Br 11.900368 0.872799 -6.086388
C 11.281547 1.179989 -4.316035
C 12.008182 1.983559 -3.475909
H 12.830323 2.359977 -3.769186
C 11.538527 2.245743 -2.194280
H 12.036735 2.810042 -1.614609
C 9.839108 3.437351 -0.015705
C 9.247363 4.365140 -0.874712
H 8.835800 4.063678 -1.676370
C 9.249332 5.722208 -0.578436
H 8.832847 6.343462 -1.164636
Br 9.909408 8.015085 0.953766
C 9.859784 6.154107 0.572260
C 10.467283 5.261669 1.440796
H 10.891645 5.574260 2.230454
C 10.449560 3.914747 1.144872
H 10.860138 3.301022 1.741660
C 8.750140 1.334975 1.776952
C 9.147919 0.719122 2.951646
H 9.846000 0.075284 2.923942
C 8.554205 1.019602 4.167279
H 8.837770 0.589176 4.965584
Br 6.798368 2.473721 5.868954
C 7.536128 1.960647 4.192866
C 7.073366 2.543931 3.043053
H 6.344762 3.153728 3.070404
C 7.685788 2.229868 1.831478
H 7.372685 2.633289 1.030526
C 9.626434 -0.442700 0.227104
C 10.822723 -0.965594 -0.243338
H 11.549358 -0.379691 -0.421739
C 10.977305 -2.325118 -0.457384
H 11.800431 -2.672568 -0.781718
Br 10.034846 -5.039746 -0.502205
C 9.911968 -3.167148 -0.191459
C 8.727494 -2.690243 0.286571
H 8.010706 -3.284656 0.472913
C 8.579804 -1.323191 0.498323
H 7.756679 -0.986870 0.831127
C 5.330624 15.348362 9.310912
C 4.922015 14.376058 8.452434
C 4.424792 14.679320 7.068635
C 5.146504 15.490255 6.199922
H 5.965691 15.875020 6.488434
C 4.679804 15.744747 4.910000
H 5.178011 16.295626 4.317976
Br 2.868632 15.493201 2.736612
C 3.487453 15.186011 4.506965
C 2.760818 14.382441 5.347091
H 1.938677 14.006023 5.053814
C 3.230473 14.120257 6.628720
H 2.732265 13.555958 7.208391
C 4.929892 12.928649 8.807295
C 5.521637 12.000860 7.948288
H 5.933200 12.302322 7.146630
C 5.519668 10.643792 8.244564
H 5.936153 10.022538 7.658364
Br 4.859592 8.350915 9.776766
C 4.909216 10.211893 9.395260
C 4.301717 11.104331 10.263796
H 3.877355 10.791740 11.053454
C 4.319440 12.451253 9.967872
H 3.908862 13.064978 10.564660
C 6.018860 15.031025 10.599952
C 5.621081 15.646878 11.774646
H 4.923000 16.290716 11.746942
C 6.214795 15.346398 12.990279
H 5.931230 15.776824 13.788584
Br 7.970632 13.892279 14.691954
C 7.232872 14.405353 13.015866
C 7.695634 13.822069 11.866053
H 8.424238 13.212272 11.893404
C 7.083212 14.136133 10.654478
H 7.396315 13.732711 9.853526
C 5.142566 16.808700 9.050104
C 3.946277 17.331594 8.579662
H 3.219642 16.745691 8.401261
C 3.791695 18.691118 8.365616
H 2.968569 19.038568 8.041282
Br 4.734154 21.405746 8.320795
C 4.857032 19.533148 8.631541
C 6.041506 19.056243 9.109571
H 6.758294 19.650656 9.295913
C 6.189196 17.689191 9.321323
H 7.012321 17.352870 9.654127
C 3.120197 3.073535 4.685013
H 3.800556 2.438534 4.492672
C 1.851048 2.646382 4.986760
H 1.648220 1.718430 5.004406
C 0.866448 3.587427 5.267331
H -0.010831 3.302659 5.493200
C 1.155920 4.916346 5.217922
H 0.475562 5.557894 5.390853
C 2.416208 5.328770 4.921469
H 2.615098 6.256722 4.896765
C 3.406716 4.410637 4.658544
H 4.287933 4.705225 4.459144
C 1.802803 13.292465 13.508013
H 1.122444 13.927466 13.315672
C 3.071952 13.719618 13.809760
H 3.274780 14.647570 13.827406
C 4.056552 12.778573 14.090331
H 4.933831 13.063341 14.316200
C 3.767080 11.449654 14.040922
H 4.447438 10.808106 14.213853
C 2.506792 11.037230 13.744469
H 2.307902 10.109278 13.719765
C 1.516284 11.955363 13.481544
H 0.635067 11.660775 13.282144
C 8.043197 5.109465 12.960987
H 8.723556 5.744466 13.153328
C 6.774048 5.536618 12.659240
H 6.571220 6.464570 12.641594
C 5.789448 4.595573 12.378669
H 4.912169 4.880341 12.152800
C 6.078920 3.266654 12.428078
H 5.398562 2.625106 12.255147
C 7.339208 2.854230 12.724531
H 7.538098 1.926278 12.749235
C 8.329716 3.772363 12.987456
H 9.210933 3.477775 13.186856
C 6.725803 11.256535 4.137987
H 6.045444 10.621534 4.330328
C 7.994952 10.829382 3.836240
H 8.197780 9.901430 3.818594
C 8.979552 11.770427 3.555669
H 9.856831 11.485659 3.329800
C 8.690080 13.099346 3.605078
H 9.370438 13.740894 3.432147
C 7.429792 13.511770 3.901531
H 7.230902 14.439722 3.926235
C 6.439284 12.593637 4.164456
H 5.558067 12.888225 4.363856
