64
Lattice="7.910300 0.000000 0.000000 0.365632 8.193846 0.000000 3.767945 1.754637 10.027164"
O 2.554435 1.976540 3.681974
O 2.524291 1.525277 0.802073
O 3.755528 -0.110159 1.517411
N 1.408719 4.011427 3.602058
N 3.576162 1.081898 1.237954
C 0.354651 4.093347 4.498186
C -0.099247 5.388216 4.434012
C 0.686762 6.126244 3.477420
C 1.614229 5.244058 2.992106
C 2.780616 5.117134 2.163762
C 3.277582 3.854472 2.280879
C 2.420437 3.105843 3.251809
C -0.111250 2.913868 5.273285
C 0.533749 7.574256 3.122459
C 4.523499 3.320051 1.746030
C 4.724391 1.985594 1.363895
C 5.952301 1.469798 1.005725
C 7.055581 2.312364 0.969627
C 6.889278 3.652020 1.292501
C 5.665715 4.138219 1.687572
H -0.818640 5.722932 4.951413
H 3.142059 5.800584 1.616379
H -0.732109 3.188396 5.971176
H 0.643659 2.492595 5.703451
H -0.554870 2.292023 4.697726
H 1.090805 7.810153 2.363402
H 0.803334 8.132755 3.860458
H -0.371316 7.780883 2.907877
H 6.041355 0.564349 0.762064
H 7.908749 1.979606 0.720953
H 7.627959 4.223076 1.259412
H 5.575772 5.040388 1.959308
O 9.489442 7.971943 6.345189
O 9.519586 8.423206 9.225091
O 8.288349 10.058642 8.509753
N 10.635158 5.937056 6.425106
N 8.467715 8.866585 8.789210
C 11.689226 5.855136 5.528978
C 12.143124 4.560266 5.593152
C 11.357115 3.822239 6.549743
C 10.429648 4.704424 7.035058
C 9.263261 4.831348 7.863402
C 8.766295 6.094011 7.746285
C 9.623440 6.842639 6.775354
C 12.155127 7.034615 4.753878
C 11.510128 2.374227 6.904705
C 7.520378 6.628432 8.281134
C 7.319486 7.962889 8.663269
C 6.091576 8.478684 9.021439
C 4.988296 7.636119 9.057537
C 5.154599 6.296463 8.734662
C 6.378162 5.810264 8.339592
H 12.862517 4.225551 5.075750
H 8.901818 4.147899 8.410785
H 12.775986 6.760087 4.055988
H 11.400218 7.455888 4.323713
H 12.598747 7.656460 5.329437
H 10.953072 2.138330 7.663761
H 11.240543 1.815728 6.166706
H 12.415193 2.167600 7.119286
H 6.002522 9.384134 9.265099
H 4.135128 7.968876 9.306211
H 4.415918 5.725407 8.767752
H 6.468105 4.908095 8.067856
