92
Lattice="7.540000 0.000000 0.000000 -3.770982 10.107455 0.000000 -0.005614 -3.890089 15.606481"
S 1.090903 2.651656 14.409464
N 2.283886 1.485455 11.355275
N 3.870770 5.505157 11.083722
N -0.211347 3.745091 19.280246
N -0.692518 0.500288 16.483565
C 0.871963 3.483249 15.910807
C 1.418518 4.852826 15.809365
C 1.387872 5.810142 16.834711
C 1.828957 7.112112 16.517899
C 2.387367 7.359563 15.281866
C 2.436856 6.428679 14.272126
C 1.965609 5.125541 14.593620
C 1.954762 3.990161 13.674398
C 2.532043 3.788209 12.497670
C 3.316408 4.771484 11.715785
C 2.400478 2.512061 11.818788
C 0.260891 2.843587 16.936153
C -0.289310 1.528491 16.697374
C -0.003552 3.395008 18.211202
H 1.036933 5.593068 17.746129
H 1.772076 7.842846 17.195220
H 2.771882 8.269650 15.117998
H 2.795333 6.644975 13.363829
S 2.672501 3.565710 1.197017
N 1.479518 4.731911 4.251205
N -0.107366 0.712209 4.522758
N 3.974750 2.472275 -3.673766
N 4.455921 5.717078 -0.877084
C 2.891441 2.734117 -0.304326
C 2.344885 1.364540 -0.202884
C 2.375532 0.407225 -1.228230
C 1.934447 -0.894746 -0.911418
C 1.376036 -1.142197 0.324615
C 1.326548 -0.211313 1.334354
C 1.797795 1.091825 1.012861
C 1.808642 2.227205 1.932082
C 1.231360 2.429157 3.108811
C 0.446996 1.445883 3.890696
C 1.362926 3.705305 3.787693
C 3.502513 3.373779 -1.329672
C 4.052713 4.688875 -1.090893
C 3.766956 2.822359 -2.604722
H 2.726471 0.624298 -2.139648
H 1.991328 -1.625480 -1.588740
H 0.991522 -2.052284 0.488483
H 0.968070 -0.427609 2.242651
S -1.101181 4.603077 6.596859
N -2.271242 3.416112 3.569202
N -3.847389 7.445922 3.297649
N 0.191081 5.669143 11.480127
N 0.610929 2.470597 8.700613
C -0.870751 5.431787 8.134098
C -1.409951 6.782706 8.026413
C -1.353880 7.777735 9.022106
C -1.862827 9.041999 8.694370
C -2.405262 9.350094 7.458337
C -2.446253 8.355065 6.462644
C -1.956148 7.085750 6.770091
C -1.929306 5.899437 5.893007
C -2.577255 5.765138 4.647610
C -2.411017 4.459433 4.046760
C -3.308447 6.714972 3.918787
C -0.215083 4.762588 9.115745
C -0.042219 5.348214 10.415765
C 0.256371 3.490638 8.906618
H -0.950817 7.604981 9.917918
H -1.893327 9.755234 9.401344
H -2.733269 10.276513 7.269499
H -2.826695 8.549978 5.559028
S 4.864585 1.614289 9.009621
N 6.034646 2.801254 12.037278
N 7.610793 -1.228556 12.308831
N 3.572322 0.548224 4.126353
N 3.152474 3.746769 6.905868
C 4.634155 0.785579 7.472383
C 5.173354 -0.565339 7.580068
C 5.117283 -1.560369 6.584374
C 5.626230 -2.824633 6.912110
C 6.168666 -3.132728 8.148144
C 6.209657 -2.137699 9.143837
C 5.719552 -0.868384 8.836389
C 5.692710 0.317929 9.713474
C 6.340658 0.452228 10.958871
C 6.174421 1.757933 11.559720
C 7.071851 -0.497606 11.687693
C 3.978487 1.454778 6.490735
C 3.805623 0.869152 5.190715
C 3.507033 2.726728 6.699862
H 4.714221 -1.387615 5.688562
H 5.656731 -3.537868 6.205137
H 6.496673 -4.059146 8.336982
H 6.590099 -2.332612 10.047452
