100
Lattice="10.065700 0.000000 0.000000 0.000000 10.217400 0.000000 -1.512035 0.000000 11.258721"
Br 7.421811 0.350457 7.103240
Cl 2.826358 2.542191 11.277636
O 7.650255 1.440347 11.483671
C 2.811643 1.458023 9.921185
C 3.996312 0.887892 9.471962
C 5.285904 1.187262 10.122716
H 5.327548 1.114718 11.049309
C 6.397770 1.555088 9.481082
C 7.645918 1.872849 10.230575
O 8.568208 2.460350 9.734628
C 6.485437 1.811545 8.026342
H 6.958806 2.645285 7.874350
H 5.592429 1.903502 7.660434
C 3.905528 0.026565 8.386621
H 4.677326 -0.387239 8.073629
C 1.603981 1.209740 9.297452
H 0.825590 1.614349 9.607067
C 1.561914 0.361696 8.216615
H 0.751103 0.191065 7.793287
C 8.843819 1.746154 12.246111
H 9.591269 1.272066 11.874573
H 8.717166 1.478458 13.159193
H 9.012728 2.690241 12.210083
C 2.709240 -0.232957 7.760637
H 2.678228 -0.809218 7.032197
Br 0.375836 5.459157 9.784842
Cl 4.971289 7.650891 5.610446
O 0.147392 6.549047 5.404411
C 4.986004 6.566723 6.966897
C 3.801335 5.996592 7.416120
C 2.511743 6.295962 6.765366
H 2.470099 6.223418 5.838773
C 1.399877 6.663788 7.407000
C 0.151730 6.981549 6.657507
O -0.770561 7.569050 7.153454
C 1.312210 6.920245 8.861740
H 0.838841 7.753985 9.013732
H 2.205218 7.012202 9.227648
C 3.892119 5.135265 8.501460
H 3.120321 4.721461 8.814453
C 6.193666 6.318440 7.590630
H 6.972057 6.723049 7.281015
C 6.235733 5.470396 8.671467
H 7.046544 5.299765 9.094795
C -1.046172 6.854854 4.641971
H -1.793622 6.380766 5.013509
H -0.919519 6.587158 3.728888
H -1.215081 7.798941 4.677999
C 5.088407 4.875743 9.127445
H 5.119419 4.299482 9.855885
Br 1.131853 9.866943 4.155481
Cl 5.727306 7.675209 -0.018915
O 0.903410 8.777053 -0.224949
C 5.742022 8.759377 1.337536
C 4.557353 9.329508 1.786759
C 3.267761 9.030138 1.136005
H 3.226117 9.102682 0.209412
C 2.155895 8.662312 1.777640
C 0.907747 8.344551 1.028146
O -0.014543 7.757050 1.524093
C 2.068228 8.405855 3.232379
H 1.594859 7.572115 3.384372
H 2.961236 8.313898 3.598287
C 4.648136 10.190835 2.872100
H 3.876339 10.604639 3.185092
C 6.949684 9.007660 1.961269
H 7.728074 8.603051 1.651654
C 6.991751 9.855704 3.042106
H 7.802562 10.026335 3.465434
C -0.290154 8.471246 -0.987390
H -1.037604 8.945334 -0.615852
H -0.163502 8.738942 -1.900472
H -0.459063 7.527159 -0.951362
C 5.844424 10.450357 3.498085
H 5.875437 11.026618 4.226524
Br 8.177829 4.758243 1.473879
Cl 3.582376 2.566509 5.648275
O 8.406272 3.668353 5.854310
C 3.567661 3.650677 4.291825
C 4.752330 4.220808 3.842602
C 6.041922 3.921438 4.493356
H 6.083565 3.993982 5.419948
C 7.153788 3.553612 3.851721
C 8.401935 3.235851 4.601214
O 9.324226 2.648350 4.105268
C 7.241455 3.297155 2.396982
H 7.714824 2.463415 2.244989
H 6.348446 3.205198 2.031073
C 4.661546 5.082135 2.757261
H 5.433344 5.495939 2.444268
C 2.359998 3.898960 3.668091
H 1.581608 3.494351 3.977706
C 2.317932 4.747004 2.587254
H 1.507121 4.917635 2.163926
C 9.599836 3.362546 6.616751
H 10.347286 3.836634 6.245213
H 9.473184 3.630242 7.529833
H 9.768746 2.418459 6.580723
C 3.465258 5.341657 2.131276
H 3.434246 5.917918 1.402837
