148
Lattice="14.990000 0.000000 0.000000 0.000000 7.750000 0.000000 -3.028033 0.000000 11.083822"
Br 16.068441 0.000000 1.747919
Br 17.094884 3.165100 0.668354
C 13.782216 1.379500 2.725512
C 12.824570 2.591600 2.867385
C 11.081002 1.098950 4.058896
C 10.156587 0.957900 5.324668
C 9.205891 2.151400 5.446590
C 10.065046 3.423950 5.473191
C 9.101016 4.539175 5.868884
C 8.103945 3.812225 6.840935
C 8.442869 2.294000 6.785516
C 8.198113 2.149075 4.285006
C 12.017881 2.713275 1.512942
C 14.903188 1.646875 1.722426
C 7.190303 1.467075 7.118031
C 7.425386 -0.044950 6.992784
C 6.696787 1.786375 8.573337
C 5.188070 1.527525 8.729619
C 4.706953 1.799550 10.145023
C 3.239922 1.557750 10.406601
C 2.360505 2.515650 9.559797
C 2.893157 1.714300 11.917326
C 15.753611 2.852000 1.984004
C 14.792755 4.070300 2.093734
C 13.680081 3.869575 3.132288
C 12.840478 5.115775 3.302979
C 11.785207 4.911950 4.400277
C 10.969521 3.657225 4.263946
C 11.866751 2.398625 4.068871
H 14.195402 1.129950 3.698672
H 11.773888 0.249550 4.041162
H 10.756738 0.888150 6.228000
H 10.723489 3.286775 6.327754
H 9.657445 5.294025 6.421967
H 8.211896 4.181125 7.828504
H 9.157487 2.107225 7.599069
H 7.568322 1.246975 4.362592
H 11.431859 1.812725 1.369960
H 14.480690 1.745300 0.755917
H 6.414637 1.738325 6.374306
H 6.922595 2.838050 8.772845
H 8.194238 -0.325500 7.706582
H 4.620902 2.176200 8.045747
H 4.959215 2.831075 10.428768
H 2.977425 0.537075 10.138372
H 3.149902 2.752025 12.206614
H 2.601956 3.551825 9.850193
H 16.232450 2.716375 2.958272
H 15.390968 4.971625 2.384130
H 14.173002 3.702175 4.109881
H 13.484235 5.969050 3.492512
H 12.259852 4.985575 5.373437
H 10.346493 3.748675 3.394975
H 13.226640 0.490575 2.410731
H 14.354646 4.293500 1.134983
H 12.352630 5.312625 2.334253
H 11.098105 5.813275 4.385869
H 10.489180 1.019900 3.179949
H 9.591024 0.016275 5.265924
H 8.598240 4.885600 4.987720
H 7.099137 3.936225 6.464085
H 7.252568 1.188850 9.254992
H 4.946558 0.510725 8.461390
H 5.303767 1.216750 10.841087
H 11.373175 3.571975 1.562819
H 12.717714 2.821775 0.701606
H 7.596303 3.017075 4.326016
H 8.745075 2.094050 3.352856
H 6.511805 -0.574275 7.247711
H 7.735657 -0.318525 6.005215
H 3.820550 2.008800 12.429398
H 2.181695 2.521075 12.041465
H 1.323595 2.338175 9.744897
H 2.599247 2.380800 8.526785
Br -4.106474 3.875000 9.335904
Br -5.132916 7.040100 10.415468
C -1.820248 5.254500 8.358310
C -0.862603 6.466600 8.216438
C 0.880965 4.973950 7.024927
C 1.805380 4.832900 5.759154
C 2.756077 6.026400 5.637232
C 1.896922 7.298950 5.610631
C 2.860952 8.414175 5.214938
C 3.858022 7.687225 4.242887
C 3.519098 6.169000 4.298306
C 3.763855 6.024075 6.798817
C -0.055913 6.588275 9.570881
C -2.941220 5.521875 9.361396
C 4.771664 5.342075 3.965792
C 4.536581 3.830050 4.091039
C 5.265181 5.661375 2.510486
C 6.773898 5.402525 2.354204
C 7.255015 5.674550 0.938800
C 8.722045 5.432750 0.677222
C 9.601463 6.390650 1.524026
C 9.068810 5.589300 -0.833503
C -3.791644 6.727000 9.099818
C -2.830787 7.945300 8.990088
C -1.718114 7.744575 7.951534
C -0.878511 8.990775 7.780843
C 0.176760 8.786950 6.683545
C 0.992447 7.532225 6.819876
C 0.095216 6.273625 7.014951
H -2.233434 5.004950 7.385151
H 0.188079 4.124550 7.042661
H 1.205230 4.763150 4.855823
H 1.238478 7.161775 4.756068
H 2.304523 9.169025 4.661856
H 3.750072 8.056125 3.255319
H 2.804481 5.982225 3.484754
H 4.393645 5.121975 6.721230
H 0.530108 5.687725 9.713862
H -2.518723 5.620300 10.327906
H 5.547330 5.613325 4.709516
H 5.039372 6.713050 2.310977
H 3.767729 3.549500 3.377241
H 7.341065 6.051200 3.038076
H 7.002752 6.706075 0.655054
H 8.984543 4.412075 0.945450
H 8.812066 6.627025 -1.122791
H 9.360011 7.426825 1.233629
H -4.270483 6.591375 8.125550
H -3.429001 8.846625 8.699692
H -2.211034 7.577175 6.973941
H -1.522267 9.844050 7.591310
H -0.297884 8.860575 5.710385
H 1.615475 7.623675 7.688848
H -1.264672 4.365575 8.673091
H -2.392679 8.168500 9.948839
H -0.390663 9.187625 8.749569
H 0.863863 9.688275 6.697954
H 1.472787 4.894900 7.903874
H 2.370944 3.891275 5.817898
H 3.363727 8.760600 6.096102
H 4.862830 7.811225 4.619737
H 4.709400 5.063850 1.828831
H 7.015409 4.385725 2.622432
H 6.658200 5.091750 0.242736
H 0.588792 7.446975 9.521003
H -0.755746 6.696775 10.382216
H 4.365665 6.892075 6.757807
H 3.216892 5.969050 7.730966
H 5.450163 3.300725 3.836111
H 4.226310 3.556475 5.078607
H 8.141417 5.883800 -1.345576
H 9.780272 6.396075 -0.957642
H 10.638373 6.213175 1.338926
H 9.362721 6.255800 2.557038
