208
Lattice="7.882400 0.000000 0.000000 0.000000 13.585400 0.000000 -3.147634 0.000000 20.365390"
F -2.360305 3.737479 0.364133
C -1.529913 3.760710 1.437797
C -1.071154 2.559489 1.932472
H -1.305241 1.755234 1.529441
C -0.261248 2.586796 3.036683
H 0.056222 1.789197 3.394910
C 0.095223 3.803640 3.632167
C -0.391297 4.978234 3.077414
C -1.219457 4.977691 1.979109
H -1.552724 5.768361 1.621085
C 0.912334 3.915720 4.796864
H 1.217774 3.139586 5.207430
C 1.254536 5.102269 5.321476
C 0.782814 6.340578 4.691371
O -0.064765 6.196029 3.605489
O 1.024509 7.466264 5.009479
C 2.112521 5.208914 6.532810
O 2.650141 6.193991 6.930342
O 2.219783 4.020192 7.131145
C 3.075201 3.972099 8.290750
H 2.706491 4.515787 9.003539
H 3.958603 4.307930 8.072840
C 3.154514 2.540470 8.715979
H 2.289829 2.245667 9.011685
H 3.784286 2.454882 9.435285
H 3.440862 2.002488 7.975087
F 4.727688 10.530179 9.818562
C 3.897296 10.553410 8.744898
C 3.438537 9.352189 8.250223
H 3.672624 8.547934 8.653254
C 2.628631 9.379496 7.146012
H 2.311161 8.581897 6.787784
C 2.272160 10.596340 6.550528
C 2.758680 11.770934 7.105281
C 3.586840 11.770391 8.203586
H 3.920107 12.561061 8.561610
C 1.455049 10.708420 5.385831
H 1.149609 9.932286 4.975265
C 1.112847 11.894969 4.861219
C 1.584569 13.133278 5.491324
O 2.432148 12.988729 6.577206
O 1.342874 14.258964 5.173216
C 0.254862 12.001614 3.649885
O -0.282758 12.986691 3.252353
O 0.147600 10.812892 3.051550
C -0.707818 10.764799 1.891945
H -0.339108 11.308487 1.179156
H -1.591220 11.100630 2.109854
C -0.787131 9.333170 1.466715
H 0.077554 9.038367 1.171010
H -1.416902 9.247582 0.747410
H -1.073478 8.795188 2.207608
F 7.095072 9.847921 20.001256
C 6.264679 9.824690 18.927593
C 5.805921 11.025911 18.432918
H 6.040007 11.830166 18.835949
C 4.996015 10.998604 17.328706
H 4.678544 11.796203 16.970479
C 4.639543 9.781760 16.733222
C 5.126064 8.607166 17.287976
C 5.954224 8.607709 18.386281
H 6.287490 7.817039 18.744305
C 3.822432 9.669680 15.568526
H 3.516992 10.445814 15.157959
C 3.480231 8.483131 15.043913
C 3.951952 7.244822 15.674018
O 4.799531 7.389371 16.759901
O 3.710258 6.119136 15.355911
C 2.622246 8.376486 13.832580
O 2.084625 7.391409 13.435048
O 2.514983 9.565208 13.234245
C 1.659566 9.613301 12.074640
H 2.028275 9.069613 11.361851
H 0.776163 9.277470 12.292549
C 1.580252 11.044930 11.649410
H 2.444937 11.339733 11.353705
H 0.950481 11.130518 10.930105
H 1.293905 11.582912 12.390303
F 0.007078 3.055221 10.546828
C 0.837470 3.031990 11.620491
C 1.296229 4.233211 12.115167
H 1.062142 5.037466 11.712136
C 2.106135 4.205904 13.219378
H 2.423606 5.003503 13.577605
C 2.462607 2.989060 13.814862
C 1.976086 1.814466 13.260109
C 1.147926 1.815009 12.161803
H 0.814659 1.024339 11.803780
C 3.279717 2.876980 14.979559
H 3.585157 3.653114 15.390125
C 3.621919 1.690431 15.504171
C 3.150197 0.452122 14.874066
O 2.302618 0.596671 13.788183
O 3.391892 -0.673564 15.192173
C 4.479904 1.583786 16.715504
O 5.017525 0.598709 17.113037
O 4.587166 2.772508 17.313840
C 5.442584 2.820601 18.473445
H 5.073874 2.276913 19.186234
H 6.325986 2.484770 18.255535
C 5.521898 4.252230 18.898674
H 4.657213 4.547033 19.194380
H 6.151669 4.337818 19.617980
H 5.808245 4.790212 18.157781
F 8.453065 7.070657 10.047061
C 7.671159 7.115625 8.950385
C 7.188277 5.932201 8.443491
H 7.383238 5.120337 8.854871
C 6.407970 5.983146 7.310971
H 6.070950 5.196416 6.946634
C 6.118276 7.209228 6.706730
C 6.641179 8.367112 7.250486
C 7.425902 8.342658 8.390133
H 7.770869 9.123955 8.759154
C 5.327643 7.328644 5.513522
H 4.969775 6.563107 5.125969
C 5.096635 8.520491 4.947771
C 5.659024 9.744400 5.531851
O 6.432840 9.580424 6.679848
O 5.542605 10.865875 5.127394
C 4.222290 8.658519 3.750490
O 3.744669 9.656366 3.347255
O 3.996784 7.467623 3.184332
C 3.044826 7.467079 2.097024
H 3.376230 8.003159 1.360408
H 2.197765 7.838776 2.390897
C 2.865467 6.046862 1.666296
H 3.688198 5.718095 1.295239
H 2.173597 5.997954 1.001977
H 2.619167 5.510238 2.423481
F 1.796718 0.277957 0.135633
C 2.578624 0.322925 1.232310
C 3.061506 -0.860499 1.739204
H 2.866546 -1.672363 1.327823
C 3.841813 -0.809554 2.871724
H 4.178834 -1.596284 3.236060
C 4.131507 0.416528 3.475965
C 3.608604 1.574412 2.932209
C 2.823881 1.549958 1.792562
H 2.478914 2.331255 1.423541
C 4.922140 0.535944 4.669173
H 5.280008 -0.229593 5.056726
C 5.153148 1.727791 5.234923
C 4.590760 2.951700 4.650844
O 3.816944 2.787724 3.502847
O 4.707178 4.073175 5.055301
C 6.027493 1.865819 6.432205
O 6.505115 2.863666 6.835439
O 6.252999 0.674923 6.998362
C 7.204957 0.674379 8.085671
H 6.873553 1.210459 8.822287
H 8.052018 1.046076 7.791798
C 7.384316 -0.745838 8.516399
H 6.561585 -1.074605 8.887456
H 8.076186 -0.794746 9.180718
H 7.630616 -1.282462 7.759213
F -3.718299 6.514743 10.318328
C -2.936393 6.469775 11.415005
C -2.453511 7.653199 11.921899
H -2.648471 8.465063 11.510518
C -1.673204 7.602254 13.054418
H -1.336183 8.388985 13.418755
C -1.383509 6.376172 13.658660
C -1.906412 5.218288 13.114904
C -2.691135 5.242742 11.975256
H -3.036103 4.461445 11.606236
C -0.592876 6.256756 14.851868
H -0.235009 7.022293 15.239421
C -0.361869 5.064909 15.417618
C -0.924257 3.841000 14.833539
O -1.698073 4.004976 13.685542
O -0.807839 2.719525 15.237995
C 0.512477 4.926881 16.614899
O 0.990098 3.929034 17.018134
O 0.737982 6.117777 17.181057
C 1.689940 6.118321 18.268365
H 1.358536 5.582241 19.004982
H 2.537001 5.746624 17.974493
C 1.869299 7.538538 18.699093
H 1.046568 7.867305 19.070151
H 2.561169 7.587446 19.363412
H 2.115599 8.075162 17.941908
F 2.938048 13.307443 20.229756
C 2.156143 13.262475 19.133080
C 1.673260 14.445899 18.626185
H 1.868221 15.257763 19.037566
C 0.892953 14.394954 17.493666
H 0.555933 15.181685 17.129329
C 0.603259 13.168872 16.889425
C 1.126162 12.010988 17.433181
C 1.910885 12.035442 18.572828
H 2.255852 11.254145 18.941849
C -0.187374 13.049456 15.696217
H -0.545242 13.814993 15.308663
C -0.418382 11.857609 15.130466
C 0.144007 10.633700 15.714546
O 0.917823 10.797676 16.862543
O 0.027588 9.512225 15.310089
C -1.292727 11.719581 13.933185
O -1.770348 10.721734 13.529950
O -1.518233 12.910477 13.367027
C -2.470191 12.911021 12.279719
H -2.138787 12.374941 11.543103
H -3.317251 12.539324 12.573592
C -2.649549 14.331238 11.848991
H -1.826818 14.660005 11.477934
H -3.341419 14.380146 11.184672
H -2.895850 14.867862 12.606176
