306
Lattice="13.804000 0.000000 0.000000 0.000000 5.829000 0.000000 -3.080419 0.000000 21.948893"
I 4.414780 4.416458 1.973162
F 5.784849 5.247849 -0.823303
F 7.633542 4.076220 -2.340410
C 5.902127 3.518384 0.790160
C 6.322772 4.079717 -0.397275
C 7.298402 3.485742 -1.172071
I 9.389220 1.412542 -1.973162
F 8.019151 0.581151 0.823303
F 6.170458 1.752780 2.340410
C 7.901873 2.310616 -0.790160
C 7.481228 1.749283 0.397275
C 6.505598 2.343258 1.172071
I 1.334361 4.416458 23.922055
F 2.704431 5.247849 21.125590
F 4.553123 4.076220 19.608483
C 2.821709 3.518384 22.739053
C 3.242353 4.079717 21.551618
C 4.217983 3.485742 20.776822
I 6.308801 1.412542 19.975732
F 4.938732 0.581151 22.772196
F 3.090039 1.752780 24.289304
C 4.821454 2.310616 21.158733
C 4.400810 1.749283 22.346168
C 3.425180 2.343258 23.120964
I 7.849011 4.416458 9.001285
F 6.478941 5.247849 11.797750
F 4.630249 4.076220 13.314857
C 6.361663 3.518384 10.184286
C 5.941019 4.079717 11.371722
C 4.965389 3.485742 12.146518
I 2.874571 1.412542 12.947608
F 4.244640 0.581151 10.151144
F 6.093332 1.752780 8.634036
C 4.361918 2.310616 11.764607
C 4.782562 1.749283 10.577172
C 5.758192 2.343258 9.802376
I -2.487220 1.501958 1.973162
F -1.117151 2.333349 -0.823303
F 0.731542 1.161720 -2.340410
C -0.999873 0.603884 0.790160
C -0.579228 1.165217 -0.397275
C 0.396402 0.571242 -1.172071
I 2.487220 -1.501958 -1.973162
F 1.117151 -2.333349 0.823303
F -0.731542 -1.161720 2.340410
C 0.999873 -0.603884 -0.790160
C 0.579228 -1.165217 0.397275
C -0.396402 -0.571242 1.172071
I -5.567639 1.501958 23.922055
F -4.197569 2.333349 21.125590
F -2.348877 1.161720 19.608483
C -4.080291 0.603884 22.739053
C -3.659647 1.165217 21.551618
C -2.684017 0.571242 20.776822
I -0.593199 -1.501958 19.975732
F -1.963268 -2.333349 22.772196
F -3.811961 -1.161720 24.289304
C -2.080546 -0.603884 21.158733
C -2.501190 -1.165217 22.346168
C -3.476820 -0.571242 23.120964
I -2.487220 7.330958 1.973162
F -1.117151 8.162349 -0.823303
F 0.731542 6.990720 -2.340410
C -0.999873 6.432884 0.790160
C -0.579228 6.994217 -0.397275
C 0.396402 6.400242 -1.172071
I 2.487220 4.327042 -1.973162
F 1.117151 3.495651 0.823303
F -0.731542 4.667280 2.340410
C 0.999873 5.225116 -0.790160
C 0.579228 4.663783 0.397275
C -0.396402 5.257758 1.172071
I -5.567639 7.330958 23.922055
F -4.197569 8.162349 21.125590
F -2.348877 6.990720 19.608483
C -4.080291 6.432884 22.739053
C -3.659647 6.994217 21.551618
C -2.684017 6.400242 20.776822
I -0.593199 4.327042 19.975732
F -1.963268 3.495651 22.772196
F -3.811961 4.667280 24.289304
C -2.080546 5.225116 21.158733
C -2.501190 4.663783 22.346168
C -3.476820 5.257758 23.120964
I 11.316780 1.501958 1.973162
F 12.686849 2.333349 -0.823303
F 14.535542 1.161720 -2.340410
C 12.804127 0.603884 0.790160
C 13.224772 1.165217 -0.397275
C 14.200402 0.571242 -1.172071
I 16.291220 -1.501958 -1.973162
F 14.921151 -2.333349 0.823303
F 13.072458 -1.161720 2.340410
C 14.803873 -0.603884 -0.790160
C 14.383228 -1.165217 0.397275
C 13.407598 -0.571242 1.172071
I 8.236361 1.501958 23.922055
F 9.606431 2.333349 21.125590
F 11.455123 1.161720 19.608483
C 9.723709 0.603884 22.739053
C 10.144353 1.165217 21.551618
C 11.119983 0.571242 20.776822
I 13.210801 -1.501958 19.975732
F 11.840732 -2.333349 22.772196
F 9.992039 -1.161720 24.289304
C 11.723454 -0.603884 21.158733
C 11.302810 -1.165217 22.346168
C 10.327180 -0.571242 23.120964
I 11.316780 7.330958 1.973162
F 12.686849 8.162349 -0.823303
F 14.535542 6.990720 -2.340410
C 12.804127 6.432884 0.790160
C 13.224772 6.994217 -0.397275
C 14.200402 6.400242 -1.172071
I 16.291220 4.327042 -1.973162
F 14.921151 3.495651 0.823303
F 13.072458 4.667280 2.340410
C 14.803873 5.225116 -0.790160
C 14.383228 4.663783 0.397275
C 13.407598 5.257758 1.172071
I 8.236361 7.330958 23.922055
F 9.606431 8.162349 21.125590
F 11.455123 6.990720 19.608483
C 9.723709 6.432884 22.739053
C 10.144353 6.994217 21.551618
C 11.119983 6.400242 20.776822
I 13.210801 4.327042 19.975732
F 11.840732 3.495651 22.772196
F 9.992039 4.667280 24.289304
C 11.723454 5.225116 21.158733
C 11.302810 4.663783 22.346168
C 10.327180 5.257758 23.120964
I 0.947011 1.501958 9.001285
F -0.423059 2.333349 11.797750
F -2.271751 1.161720 13.314857
C -0.540337 0.603884 10.184286
C -0.960981 1.165217 11.371722
C -1.936611 0.571242 12.146518
I -4.027429 -1.501958 12.947608
F -2.657360 -2.333349 10.151144
F -0.808668 -1.161720 8.634036
C -2.540082 -0.603884 11.764607
C -2.119438 -1.165217 10.577172
C -1.143808 -0.571242 9.802376
I 0.947011 7.330958 9.001285
F -0.423059 8.162349 11.797750
F -2.271751 6.990720 13.314857
C -0.540337 6.432884 10.184286
C -0.960981 6.994217 11.371722
C -1.936611 6.400242 12.146518
I -4.027429 4.327042 12.947608
F -2.657360 3.495651 10.151144
F -0.808668 4.667280 8.634036
C -2.540082 5.225116 11.764607
C -2.119438 4.663783 10.577172
C -1.143808 5.257758 9.802376
I 14.751011 1.501958 9.001285
F 13.380941 2.333349 11.797750
F 11.532249 1.161720 13.314857
C 13.263663 0.603884 10.184286
C 12.843019 1.165217 11.371722
C 11.867389 0.571242 12.146518
I 9.776571 -1.501958 12.947608
F 11.146640 -2.333349 10.151144
F 12.995332 -1.161720 8.634036
C 11.263918 -0.603884 11.764607
C 11.684562 -1.165217 10.577172
C 12.660192 -0.571242 9.802376
I 14.751011 7.330958 9.001285
F 13.380941 8.162349 11.797750
F 11.532249 6.990720 13.314857
C 13.263663 6.432884 10.184286
C 12.843019 6.994217 11.371722
C 11.867389 6.400242 12.146518
I 9.776571 4.327042 12.947608
F 11.146640 3.495651 10.151144
F 12.995332 4.667280 8.634036
C 11.263918 5.225116 11.764607
C 11.684562 4.663783 10.577172
C 12.660192 5.257758 9.802376
S -0.770105 2.486651 5.487223
N 2.410515 -0.117746 3.508970
C 2.041985 1.073702 3.026752
H 2.488306 1.401292 2.256346
C 1.043780 1.860617 3.588644
H 0.801061 2.690666 3.193564
C 0.410577 1.408869 4.736571
C 0.795396 0.190025 5.269929
H 0.391240 -0.141062 6.064479
C 1.784145 -0.539765 4.618047
H 2.030412 -1.383222 4.978009
N -3.950724 -0.117746 7.465477
C -3.582194 1.073702 7.947694
H -4.028515 1.401292 8.718100
C -2.583989 1.860617 7.385803
H -2.341270 2.690666 7.780883
C -1.950787 1.408869 6.237875
C -2.335606 0.190025 5.704517
H -1.931450 -0.141062 4.909967
C -3.324354 -0.539765 6.356399
H -3.570621 -1.383222 5.996438
S 13.033895 2.486651 5.487223
N 16.214515 -0.117746 3.508970
C 15.845985 1.073702 3.026752
H 16.292306 1.401292 2.256346
C 14.847780 1.860617 3.588644
H 14.605061 2.690666 3.193564
C 14.214577 1.408869 4.736571
C 14.599396 0.190025 5.269929
H 14.195240 -0.141062 6.064479
C 15.588145 -0.539765 4.618047
H 15.834412 -1.383222 4.978009
N 9.853276 -0.117746 7.465477
C 10.221806 1.073702 7.947694
H 9.775485 1.401292 8.718100
C 11.220011 1.860617 7.385803
H 11.462730 2.690666 7.780883
C 11.853213 1.408869 6.237875
C 11.468394 0.190025 5.704517
H 11.872550 -0.141062 4.909967
C 10.479646 -0.539765 6.356399
H 10.233379 -1.383222 5.996438
S 6.131895 5.401151 5.487223
N 9.312515 2.796754 3.508970
C 8.943985 3.988202 3.026752
H 9.390306 4.315792 2.256346
C 7.945780 4.775117 3.588644
H 7.703061 5.605166 3.193564
C 7.312577 4.323369 4.736571
C 7.697396 3.104525 5.269929
H 7.293240 2.773438 6.064479
C 8.686145 2.374735 4.618047
H 8.932412 1.531278 4.978009
N 2.951276 2.796754 7.465477
C 3.319806 3.988202 7.947694
H 2.873485 4.315792 8.718100
C 4.318011 4.775117 7.385803
H 4.560730 5.605166 7.780883
C 4.951213 4.323369 6.237875
C 4.566394 3.104525 5.704517
H 4.970550 2.773438 4.909967
C 3.577646 2.374735 6.356399
H 3.331379 1.531278 5.996438
S -2.310314 3.342349 16.461670
N -5.490933 5.946746 18.439924
C -5.122404 4.755298 18.922141
H -5.568725 4.427708 19.692547
C -4.124199 3.968383 18.360249
H -3.881480 3.138334 18.755329
C -3.490996 4.420131 17.212322
C -3.875815 5.638975 16.678964
H -3.471659 5.970062 15.884414
C -4.864563 6.368765 17.330846
H -5.110831 7.212222 16.970884
N 0.870305 5.946746 14.483416
C 0.501776 4.755298 14.001199
H 0.948096 4.427708 13.230793
C -0.496429 3.968383 14.563091
H -0.739148 3.138334 14.168011
C -1.129632 4.420131 15.711018
C -0.744813 5.638975 16.244376
H -1.148969 5.970062 17.038926
C 0.243935 6.368765 15.592494
H 0.490202 7.212222 15.952456
S 11.493686 3.342349 16.461670
N 8.313067 5.946746 18.439924
C 8.681596 4.755298 18.922141
H 8.235275 4.427708 19.692547
C 9.679801 3.968383 18.360249
H 9.922520 3.138334 18.755329
C 10.313004 4.420131 17.212322
C 9.928185 5.638975 16.678964
H 10.332341 5.970062 15.884414
C 8.939437 6.368765 17.330846
H 8.693169 7.212222 16.970884
N 14.674305 5.946746 14.483416
C 14.305776 4.755298 14.001199
H 14.752096 4.427708 13.230793
C 13.307571 3.968383 14.563091
H 13.064852 3.138334 14.168011
C 12.674368 4.420131 15.711018
C 13.059187 5.638975 16.244376
H 12.655031 5.970062 17.038926
C 14.047935 6.368765 15.592494
H 14.294202 7.212222 15.952456
S 4.591686 0.427849 16.461670
N 1.411067 3.032246 18.439924
C 1.779596 1.840798 18.922141
H 1.333275 1.513208 19.692547
C 2.777801 1.053883 18.360249
H 3.020520 0.223834 18.755329
C 3.411004 1.505631 17.212322
C 3.026185 2.724475 16.678964
H 3.430341 3.055562 15.884414
C 2.037437 3.454265 17.330846
H 1.791169 4.297722 16.970884
N 7.772305 3.032246 14.483416
C 7.403776 1.840798 14.001199
H 7.850096 1.513208 13.230793
C 6.405571 1.053883 14.563091
H 6.162852 0.223834 14.168011
C 5.772368 1.505631 15.711018
C 6.157187 2.724475 16.244376
H 5.753031 3.055562 17.038926
C 7.145935 3.454265 15.592494
H 7.392202 4.297722 15.952456
