76
Lattice="12.928000 0.000000 0.000000 0.000000 5.928000 0.000000 -3.915290 0.000000 9.300472"
O 13.074922 0.015413 3.081246
O 11.018547 -0.620069 1.007241
N 9.659904 0.460013 2.646914
N 9.279494 2.426923 3.869927
N 11.402855 1.486742 3.690427
C 8.290354 0.116782 2.310237
C 10.061643 1.496227 3.412343
C 11.891855 0.384727 3.087757
C 10.795889 -0.391841 2.353019
C 11.225088 0.553675 0.237162
H 8.417033 2.436408 3.682987
H 9.710428 3.058848 4.510729
H 8.285968 0.118560 1.199761
H 8.139333 -0.829920 2.315818
H 7.774322 0.527592 2.752940
H 11.492028 0.337896 -0.734737
H 10.567349 1.150032 0.325517
H 12.041141 1.126320 0.325517
H 10.647071 -1.298232 2.715738
O 2.401788 2.979413 6.219226
O 4.458163 2.343931 8.293231
N 5.816806 3.424013 6.653558
N 6.197216 5.390923 5.430546
N 4.073855 4.450742 5.610045
C 7.186356 3.080782 6.990235
C 5.415067 4.460227 5.888129
C 3.584855 3.348727 6.212715
C 4.680821 2.572159 6.947453
C 4.251622 3.517675 9.063310
H 7.059677 5.400408 5.617485
H 5.766282 6.022848 4.789743
H 7.190742 3.082560 8.100711
H 7.337377 2.134080 6.984655
H 7.702388 3.491592 6.547532
H 3.984682 3.301896 10.035210
H 4.909361 4.114032 8.974956
H 3.435569 4.090320 8.974956
H 4.829639 1.665768 6.584734
O -4.062212 5.912587 6.219226
O -2.005837 6.548069 8.293231
N -0.647194 5.467987 6.653558
N -0.266784 3.501077 5.430546
N -2.390145 4.441258 5.610045
C 0.722356 5.811218 6.990235
C -1.048933 4.431773 5.888129
C -2.879145 5.543273 6.212715
C -1.783179 6.319841 6.947453
C -2.212378 5.374325 9.063310
H 0.595677 3.491592 5.617485
H -0.697718 2.869152 4.789743
H 0.726742 5.809440 8.100711
H 0.873377 6.757920 6.984655
H 1.238388 5.400408 6.547532
H -2.479318 5.590104 10.035210
H -1.554639 4.777968 8.974956
H -3.028431 4.801680 8.974956
H -1.634361 7.226232 6.584734
O 6.610922 2.948587 3.081246
O 4.554547 3.584069 1.007241
N 3.195904 2.503987 2.646914
N 2.815494 0.537077 3.869927
N 4.938855 1.477258 3.690427
C 1.826354 2.847218 2.310237
C 3.597643 1.467773 3.412343
C 5.427855 2.579273 3.087757
C 4.331889 3.355841 2.353019
C 4.761088 2.410325 0.237162
H 1.953033 0.527592 3.682987
H 3.246428 -0.094848 4.510729
H 1.821968 2.845440 1.199761
H 1.675333 3.793920 2.315818
H 1.310322 2.436408 2.752940
H 5.028028 2.626104 -0.734737
H 4.103349 1.813968 0.325517
H 5.577141 1.837680 0.325517
H 4.183071 4.262232 2.715738
