240
Lattice="12.771000 0.000000 0.000000 0.000000 9.914000 0.000000 0.000000 0.000000 18.545000"
N 9.947460 8.248646 6.596271
N 9.724223 10.460361 6.382076
H 9.474805 11.264287 6.559367
N 8.556570 9.407395 8.139586
H 8.133850 10.142022 8.287761
C 10.673363 8.680698 5.485796
C 10.534798 10.059736 5.331873
C 11.152914 10.755699 4.315978
H 11.043084 11.673735 4.217133
C 11.943439 10.026028 3.450112
H 12.373822 10.461253 2.750224
C 12.109462 8.660870 3.601995
H 12.662447 8.202844 3.011708
C 11.474744 7.965899 4.604167
H 11.578189 7.045880 4.690031
C 9.402010 9.347911 7.070652
C 8.338186 8.309915 9.024553
C 7.061086 7.882621 9.283256
H 6.339524 8.290087 8.860801
C 6.846533 6.844626 10.173416
H 5.974274 6.571991 10.344401
C 7.877153 6.205173 10.809510
C 9.147867 6.661217 10.546542
H 9.869429 6.260691 10.973077
C 9.379022 7.697230 9.665654
H 10.250005 7.981761 9.506167
C 7.629395 5.076959 11.775519
H 6.688173 4.895533 11.820583
H 7.949948 5.324809 12.645836
H 8.092983 4.291771 11.475646
N 9.209040 1.665354 15.868771
N 9.432277 -0.546361 15.654576
H 9.681695 -1.350287 15.831867
N 10.599930 0.506605 17.412086
H 11.022650 -0.228022 17.560261
C 8.483137 1.233302 14.758296
C 8.621702 -0.145736 14.604373
C 8.003586 -0.841699 13.588478
H 8.113416 -1.759735 13.489633
C 7.213061 -0.112028 12.722612
H 6.782678 -0.547253 12.022724
C 7.047038 1.253130 12.874495
H 6.494054 1.711156 12.284208
C 7.681757 1.948101 13.876667
H 7.578311 2.868120 13.962531
C 9.754490 0.566089 16.343152
C 10.818314 1.604085 18.297053
C 12.095414 2.031379 18.555756
H 12.816976 1.623913 18.133301
C 12.309967 3.069374 19.445916
H 13.182226 3.342009 19.616901
C 11.279347 3.708827 20.082010
C 10.008633 3.252783 19.819042
H 9.287071 3.653309 20.245576
C 9.777478 2.216770 18.938154
H 8.906495 1.932239 18.778667
C 11.527105 4.837041 21.048019
H 12.468327 5.018467 21.093083
H 11.206553 4.589191 21.918336
H 11.063517 5.622229 20.748146
N 2.823540 3.291646 2.676229
N 3.046777 5.503361 2.890424
H 3.296195 6.307287 2.713134
N 4.214430 4.450395 1.132914
H 4.637150 5.185022 0.984740
C 2.097637 3.723698 3.786704
C 2.236202 5.102736 3.940627
C 1.618086 5.798699 4.956522
H 1.727916 6.716735 5.055367
C 0.827561 5.069028 5.822388
H 0.397178 5.504253 6.522277
C 0.661538 3.703870 5.670505
H 0.108554 3.245844 6.260792
C 1.296257 3.008899 4.668333
H 1.192811 2.088880 4.582470
C 3.368990 4.390911 2.201848
C 4.432814 3.352915 0.247947
C 5.709914 2.925621 -0.010756
H 6.431476 3.333087 0.411699
C 5.924467 1.887626 -0.900916
H 6.796726 1.614991 -1.071901
C 4.893847 1.248173 -1.537010
C 3.623133 1.704217 -1.274042
H 2.901571 1.303691 -1.700577
C 3.391978 2.740230 -0.393154
H 2.520995 3.024761 -0.233667
C 5.141605 0.119959 -2.503019
H 6.082827 -0.061467 -2.548083
H 4.821053 0.367809 -3.373336
H 4.678017 -0.665229 -2.203146
N 3.561960 6.622354 11.948729
N 3.338723 4.410639 12.162924
H 3.089305 3.606713 11.985634
N 2.171070 5.463605 10.405414
H 1.748350 4.728978 10.257240
C 4.287863 6.190302 13.059204
C 4.149298 4.811264 13.213127
C 4.767414 4.115301 14.229022
H 4.657584 3.197265 14.327867
C 5.557939 4.844972 15.094888
H 5.988322 4.409747 15.794777
C 5.723962 6.210130 14.943005
H 6.276947 6.668156 15.533292
C 5.089244 6.905101 13.940833
H 5.192689 7.825120 13.854970
C 3.016510 5.523089 11.474348
C 1.952686 6.561085 9.520447
C 0.675586 6.988379 9.261744
H -0.045976 6.580913 9.684199
C 0.461033 8.026374 8.371584
H -0.411226 8.299009 8.200599
C 1.491653 8.665827 7.735490
C 2.762367 8.209783 7.998459
H 3.483929 8.610309 7.571924
C 2.993522 7.173770 8.879346
H 3.864505 6.889239 9.038833
C 1.243895 9.794041 6.769481
H 0.302673 9.975467 6.724417
H 1.564448 9.546191 5.899165
H 1.707483 10.579229 7.069354
N 2.823540 1.665354 11.948729
N 3.046777 -0.546361 12.162924
H 3.296195 -1.350287 11.985634
N 4.214430 0.506605 10.405414
H 4.637150 -0.228022 10.257240
C 2.097637 1.233302 13.059204
C 2.236202 -0.145736 13.213127
C 1.618086 -0.841699 14.229022
H 1.727916 -1.759735 14.327867
C 0.827561 -0.112028 15.094888
H 0.397178 -0.547253 15.794777
C 0.661538 1.253130 14.943005
H 0.108554 1.711156 15.533292
C 1.296257 1.948101 13.940833
H 1.192811 2.868120 13.854970
C 3.368990 0.566089 11.474348
C 4.432814 1.604085 9.520447
C 5.709914 2.031379 9.261744
H 6.431476 1.623913 9.684199
C 5.924467 3.069374 8.371584
H 6.796726 3.342009 8.200599
C 4.893847 3.708827 7.735490
C 3.623133 3.252783 7.998459
H 2.901571 3.653309 7.571924
C 3.391978 2.216770 8.879346
H 2.520995 1.932239 9.038833
C 5.141605 4.837041 6.769481
H 6.082827 5.018467 6.724417
H 4.821053 4.589191 5.899165
H 4.678017 5.622229 7.069354
N 3.561960 8.248646 2.676229
N 3.338723 10.460361 2.890424
H 3.089305 11.264287 2.713134
N 2.171070 9.407395 1.132914
H 1.748350 10.142022 0.984740
C 4.287863 8.680698 3.786704
C 4.149298 10.059736 3.940627
C 4.767414 10.755699 4.956522
H 4.657584 11.673735 5.055367
C 5.557939 10.026028 5.822388
H 5.988322 10.461253 6.522277
C 5.723962 8.660870 5.670505
H 6.276947 8.202844 6.260792
C 5.089244 7.965899 4.668333
H 5.192689 7.045880 4.582470
C 3.016510 9.347911 2.201848
C 1.952686 8.309915 0.247947
C 0.675586 7.882621 -0.010756
H -0.045976 8.290087 0.411699
C 0.461033 6.844626 -0.900916
H -0.411226 6.571991 -1.071901
C 1.491653 6.205173 -1.537010
C 2.762367 6.661217 -1.274042
H 3.483929 6.260691 -1.700577
C 2.993522 7.697230 -0.393154
H 3.864505 7.981761 -0.233667
C 1.243895 5.076959 -2.503019
H 0.302673 4.895533 -2.548083
H 1.564447 5.324809 -3.373336
H 1.707483 4.291771 -2.203146
N 9.947460 6.622354 15.868771
N 9.724223 4.410639 15.654576
H 9.474805 3.606713 15.831867
N 8.556570 5.463605 17.412086
H 8.133850 4.728978 17.560261
C 10.673363 6.190302 14.758296
C 10.534798 4.811264 14.604373
C 11.152914 4.115301 13.588478
H 11.043084 3.197265 13.489633
C 11.943439 4.844972 12.722612
H 12.373822 4.409747 12.022724
C 12.109462 6.210130 12.874495
H 12.662447 6.668156 12.284208
C 11.474744 6.905101 13.876667
H 11.578189 7.825120 13.962531
C 9.402010 5.523089 16.343152
C 8.338186 6.561085 18.297053
C 7.061086 6.988379 18.555756
H 6.339524 6.580913 18.133301
C 6.846533 8.026374 19.445916
H 5.974274 8.299009 19.616901
C 7.877153 8.665827 20.082010
C 9.147867 8.209783 19.819042
H 9.869429 8.610309 20.245576
C 9.379022 7.173770 18.938154
H 10.250005 6.889239 18.778667
C 7.629395 9.794041 21.048019
H 6.688173 9.975467 21.093083
H 7.949948 9.546191 21.918336
H 8.092983 10.579229 20.748146
N 9.209040 3.291646 6.596271
N 9.432277 5.503361 6.382076
H 9.681695 6.307287 6.559367
N 10.599930 4.450395 8.139586
H 11.022650 5.185022 8.287761
C 8.483137 3.723698 5.485796
C 8.621702 5.102736 5.331873
C 8.003586 5.798699 4.315978
H 8.113416 6.716735 4.217133
C 7.213061 5.069028 3.450112
H 6.782678 5.504253 2.750224
C 7.047038 3.703870 3.601995
H 6.494053 3.245844 3.011708
C 7.681757 3.008899 4.604167
H 7.578311 2.088880 4.690031
C 9.754490 4.390911 7.070652
C 10.818314 3.352915 9.024553
C 12.095414 2.925621 9.283256
H 12.816976 3.333087 8.860801
C 12.309967 1.887626 10.173416
H 13.182226 1.614991 10.344401
C 11.279347 1.248173 10.809510
C 10.008633 1.704217 10.546542
H 9.287071 1.303691 10.973077
C 9.777478 2.740230 9.665654
H 8.906495 3.024761 9.506167
C 11.527105 0.119959 11.775519
H 12.468327 -0.061467 11.820583
H 11.206553 0.367809 12.645836
H 11.063517 -0.665229 11.475646
