120
Lattice="7.419000 0.000000 0.000000 0.000000 18.437000 0.000000 -2.706397 0.000000 9.268967"
S -1.367886 7.648036 6.177303
N 1.524307 4.621418 8.556183
N 0.181084 8.019358 4.088078
H -0.346961 8.689358 3.957849
N 0.642780 6.131409 5.322148
H 1.178592 5.914590 4.754980
C 1.542940 5.509160 7.559862
C 2.446774 6.547532 7.518523
H 2.394787 7.190430 6.847913
C 3.434966 6.625889 8.486666
H 4.064116 7.310271 8.466275
C 3.467637 5.672881 9.477519
H 4.138933 5.673065 10.120785
C 2.475236 4.719135 9.486788
H 2.466564 4.104076 10.184741
C 0.520687 5.251595 6.477154
H 0.607562 4.332695 6.179620
H -0.366504 5.355949 6.855328
C -0.084604 7.227304 5.145389
C 1.263281 7.930307 3.161459
C 0.958057 8.060656 1.813288
H 0.075532 8.156529 1.537722
C 1.990378 8.045907 0.879625
H 1.794544 8.134404 -0.025026
C 3.288195 7.903758 1.282825
H 3.971057 7.881818 0.651608
C 3.585744 7.793873 2.616629
H 4.471187 7.702979 2.887283
C 2.570689 7.816735 3.564845
H 2.776167 7.754602 4.469496
S 4.727291 16.866536 7.726147
N 1.835098 13.839918 5.347267
N 3.178320 17.237858 9.815373
H 3.706365 17.907858 9.945602
N 2.716625 15.349909 8.581302
H 2.180812 15.133090 9.148470
C 1.816464 14.727660 6.343588
C 0.912630 15.766032 6.384928
H 0.964617 16.408930 7.055538
C -0.075561 15.844389 5.416784
H -0.704712 16.528771 5.437176
C -0.108232 14.891381 4.425932
H -0.779528 14.891565 3.782665
C 0.884169 13.937635 4.416663
H 0.892841 13.322576 3.718710
C 2.838718 14.470095 7.426296
H 2.751842 13.551195 7.723830
H 3.725908 14.574449 7.048123
C 3.444009 16.445804 8.758062
C 2.096123 17.148807 10.741991
C 2.401347 17.279156 12.090163
H 3.283872 17.375029 12.365729
C 1.369026 17.264407 13.023826
H 1.564860 17.352904 13.928477
C 0.071209 17.122258 12.620626
H -0.611653 17.100317 13.251842
C -0.226340 17.012373 11.286821
H -1.111783 16.921479 11.016167
C 0.788715 17.035235 10.338606
H 0.583237 16.973102 9.433955
S 6.080489 10.788964 3.091664
N 3.188296 13.815582 0.712784
N 4.531519 10.417642 5.180889
H 5.059563 9.747642 5.311118
N 4.069823 12.305591 3.946819
H 3.534011 12.522410 4.513987
C 3.169663 12.927840 1.709105
C 2.265829 11.889468 1.750444
H 2.317815 11.246570 2.421054
C 1.277637 11.811111 0.782301
H 0.648487 11.126730 0.802693
C 1.244966 12.764119 -0.208552
H 0.573670 12.763935 -0.851818
C 2.237367 13.717865 -0.217821
H 2.246039 14.332924 -0.915774
C 4.191916 13.185405 2.791813
H 4.105041 14.104305 3.089347
H 5.079107 13.081052 2.413639
C 4.797207 11.209696 4.123578
C 3.449321 10.506693 6.107508
C 3.754546 10.376344 7.455679
H 4.637071 10.280471 7.731245
C 2.722225 10.391093 8.389342
H 2.918058 10.302596 9.293993
C 1.424408 10.533242 7.986142
H 0.741545 10.555183 8.617359
C 1.126859 10.643127 6.652338
H 0.241416 10.734021 6.381684
C 2.141914 10.620265 5.704122
H 1.936436 10.682398 4.799471
S -0.014688 1.570464 1.542820
N 2.877505 4.597082 3.921700
N 1.534283 1.199142 -0.546406
H 1.006238 0.529142 -0.676635
N 1.995978 3.087091 0.687665
H 2.531791 3.303910 0.120497
C 2.896138 3.709340 2.925379
C 3.799973 2.670968 2.884039
H 3.747986 2.028070 2.213429
C 4.788164 2.592611 3.852183
H 5.417314 1.908230 3.831791
C 4.820835 3.545619 4.843035
H 5.492131 3.545435 5.486302
C 3.828434 4.499365 4.852304
H 3.819762 5.114424 5.550257
C 1.873885 3.966905 1.842671
H 1.960760 4.885805 1.545137
H 0.986695 3.862551 2.220845
C 1.268594 1.991196 0.510905
C 2.616480 1.288193 -1.473024
C 2.311256 1.157844 -2.821196
H 1.428731 1.061971 -3.096762
C 3.343577 1.172593 -3.754859
H 3.147743 1.084096 -4.659510
C 4.641394 1.314742 -3.351658
H 5.324256 1.336682 -3.982875
C 4.938942 1.424627 -2.017854
H 5.824386 1.515521 -1.747200
C 3.923887 1.401765 -1.069639
H 4.129366 1.463898 -0.164988
