132
Lattice="8.823000 0.000000 0.000000 0.000000 16.955000 0.000000 -3.886928 0.000000 8.771352"
Br 4.292144 3.502055 10.876916
O 3.092256 6.132624 10.869460
O 3.249176 6.687052 8.787141
N 3.502342 5.930859 9.723044
N 5.428284 5.417123 7.493366
C 4.233944 4.744009 9.467798
C 4.847038 4.467643 8.241563
C 5.468793 5.361171 6.024165
C 6.834968 5.683316 5.469815
C 7.322758 7.014284 6.013639
C 7.286889 7.021066 7.516172
C 5.883997 6.705703 8.031927
C 4.950143 3.068855 7.760016
C 3.837267 2.238060 7.784575
C 3.927767 0.946089 7.313554
C 5.134586 0.464567 6.846041
C 6.240718 1.275016 6.826744
C 6.155870 2.572074 7.288994
H 3.130245 2.509340 8.008245
H 3.121783 0.406920 7.350393
H 5.139893 -0.339100 6.499572
H 7.063617 0.966435 6.578514
H 6.953493 3.085810 7.245137
H 5.149816 4.645670 5.780321
H 4.861495 6.035980 5.754007
H 7.409553 4.984770 5.797864
H 6.727017 5.781655 4.490932
H 8.158459 7.239785 5.780321
H 6.700996 7.799300 5.604894
H 7.878498 6.375080 7.885446
H 7.505095 7.850165 7.911760
H 5.841573 6.646360 8.938008
H 5.209756 7.443245 7.815275
Br 3.111963 11.979555 2.280113
O 4.311852 14.610123 2.287569
O 4.154931 15.164552 4.369888
N 3.901766 14.408359 3.433984
N 1.975824 13.894622 5.663662
C 3.170164 13.221509 3.689231
C 2.557069 12.945142 4.915466
C 1.935315 13.838671 7.132864
C 0.569140 14.160816 7.687213
C 0.081350 15.491783 7.143389
C 0.117218 15.498565 5.640857
C 1.520111 15.183202 5.125101
C 2.453965 11.546355 5.397013
C 3.566841 10.715560 5.372453
C 3.476341 9.423589 5.843475
C 2.269522 8.942067 6.310988
C 1.163389 9.752516 6.330285
C 1.248238 11.049573 5.868035
H 4.273862 10.986840 5.148784
H 4.282324 8.884420 5.806635
H 2.264214 8.138400 6.657457
H 0.340491 9.443935 6.578514
H 0.450614 11.563310 5.911892
H 2.254291 13.123170 7.376707
H 2.542612 14.513480 7.403021
H -0.005446 13.462270 7.359165
H 0.677091 14.259155 8.666096
H -0.754352 15.717285 7.376707
H 0.703112 16.276800 7.552134
H -0.474391 14.852580 5.271583
H -0.100987 16.327665 5.245269
H 1.562534 15.123860 4.219021
H 2.194352 15.920745 5.341754
Br 0.643927 13.452945 -2.105563
O 1.843816 10.822376 -2.098108
O 1.686896 10.267948 -0.015788
N 1.433730 11.024141 -0.951692
N -0.492212 11.537877 1.277986
C 0.702128 12.210991 -0.696445
C 0.089034 12.487357 0.529790
C -0.532721 11.593829 2.747188
C -1.898896 11.271684 3.301537
C -2.386686 9.940717 2.757713
C -2.350818 9.933934 1.255181
C -0.947925 10.249297 0.739425
C -0.014071 13.886145 1.011337
C 1.098805 14.716940 0.986777
C 1.008305 16.008911 1.457799
C -0.198514 16.490433 1.925312
C -1.304647 15.679984 1.944609
C -1.219798 14.382926 1.482359
H 1.805826 14.445660 0.763108
H 1.814289 16.548080 1.420959
H -0.203821 17.294100 2.271780
H -2.127545 15.988565 2.192838
H -2.017422 13.869190 1.526215
H -0.213745 12.309330 2.991031
H 0.074577 10.919020 3.017345
H -2.473482 11.970230 2.973488
H -1.790945 11.173345 4.280420
H -3.222388 9.715215 2.991031
H -1.764924 9.155700 3.166458
H -2.942427 10.579920 0.885907
H -2.569023 9.104835 0.859593
H -0.905501 10.308640 -0.166656
H -0.273684 9.511755 0.956077
Br 1.824108 4.975445 6.491239
O 0.624220 2.344877 6.483784
O 0.781140 1.790448 4.401465
N 1.034306 2.546641 5.337368
N 2.960248 3.060377 3.107690
C 1.765908 3.733491 5.082122
C 2.379002 4.009857 3.855887
C 3.000757 3.116329 1.638489
C 4.366932 2.794184 1.084139
C 4.854722 1.463217 1.627963
C 4.818853 1.456435 3.130496
C 3.415961 1.771798 3.646251
C 2.482107 5.408645 3.374339
C 1.369231 6.239440 3.398899
C 1.459731 7.531411 2.927877
C 2.666550 8.012933 2.460364
C 3.772682 7.202484 2.441067
C 3.687834 5.905426 2.903318
H 0.662210 5.968160 3.622569
H 0.653747 8.070580 2.964717
H 2.671857 8.816600 2.113896
H 4.595581 7.511065 2.192838
H 4.485457 5.391690 2.859461
H 2.681780 3.831830 1.394645
H 2.393459 2.441520 1.368331
H 4.941518 3.492730 1.412188
H 4.258981 2.695845 0.105256
H 5.690423 1.237715 1.394645
H 4.232960 0.678200 1.219218
H 5.410463 2.102420 3.499770
H 5.037059 0.627335 3.526084
H 3.373537 1.831140 4.552332
H 2.741720 1.034255 3.429599
