152
Lattice="13.644600 0.000000 0.000000 0.000000 8.174200 0.000000 -5.683138 0.000000 13.751525"
B 3.725936 0.415249 1.218935
Cl 4.491062 -0.011199 2.880119
Cl 3.523908 -1.242478 0.278193
C 4.772713 1.184442 0.238451
N 6.066993 1.550973 0.377892
C 6.505355 2.182511 -0.767335
H 7.371582 2.542994 -0.913101
C 5.489120 2.194773 -1.632719
H 5.494863 2.559342 -2.509653
N 4.430588 1.575332 -1.007437
C 6.930512 1.396153 1.550072
H 6.546010 1.887423 2.306131
H 7.821633 1.750096 1.349025
H 7.000522 0.446311 1.780822
C 3.141651 1.352013 -1.669573
H 3.029302 2.001862 -2.394141
H 2.417325 1.459095 -1.018988
H 3.116796 0.443859 -2.037976
C 2.347951 1.218773 1.478151
C 2.364120 2.640267 1.553922
C 1.175192 3.360414 1.661734
H 1.214971 4.308621 1.695563
C -0.061478 2.740809 1.720316
C -0.074741 1.357735 1.757032
H -0.908674 0.910606 1.845455
C 1.091586 0.595082 1.669573
C 3.646183 3.446243 1.587889
H 4.316795 2.970504 2.120485
H 3.470241 4.322517 1.989846
H 3.980802 3.567221 0.675200
C -1.332472 3.546785 1.796912
H -2.098706 2.941077 1.875708
H -1.425368 4.087917 0.985984
H -1.299479 4.135328 2.579786
C 0.921545 -0.902432 1.851230
H 0.088366 -1.080629 2.335009
H 1.678876 -1.258009 2.362512
H 0.888413 -1.336482 0.973608
B 7.077095 4.502349 5.656827
Cl 6.311969 4.075901 3.995643
Cl 7.279123 2.844622 6.597569
C 6.030318 5.271542 6.637311
N 4.736038 5.638073 6.497871
C 4.297677 6.269611 7.643098
H 3.431449 6.630094 7.788864
C 5.313911 6.281873 8.508481
H 5.308168 6.646442 9.385416
N 6.372443 5.662432 7.883199
C 3.872519 5.483253 5.325691
H 4.257021 5.974523 4.569632
H 2.981398 5.837196 5.526738
H 3.802509 4.533411 5.094940
C 7.661380 5.439113 8.545335
H 7.773729 6.088962 9.269903
H 8.385706 5.546195 7.894751
H 7.686235 4.530959 8.913739
C 8.455080 5.305873 5.397611
C 8.438911 6.727367 5.321840
C 9.627839 7.447514 5.214028
H 9.588060 8.395721 5.180199
C 10.864509 6.827909 5.155447
C 10.877772 5.444835 5.118730
H 11.711705 4.997706 5.030308
C 9.711445 4.682182 5.206190
C 7.156848 7.533343 5.287874
H 6.486236 7.057604 4.755277
H 7.332790 8.409617 4.885917
H 6.822229 7.654321 6.200563
C 12.135503 7.633885 5.078851
H 12.901737 7.028177 5.000055
H 12.228399 8.175017 5.889778
H 12.102510 8.222428 4.295976
C 9.881486 3.184668 5.024532
H 10.714665 3.006471 4.540754
H 9.124155 2.829091 4.513251
H 9.914618 2.750618 5.902155
B 4.235526 7.758951 12.532590
Cl 3.470400 8.185399 10.871406
Cl 4.437554 9.416678 13.473332
C 3.188749 6.989758 13.513074
N 1.894469 6.623227 13.373633
C 1.456108 5.991689 14.518860
H 0.589880 5.631206 14.664626
C 2.472343 5.979427 15.384244
H 2.466599 5.614858 16.261178
N 3.530874 6.598868 14.758962
C 1.030950 6.778047 12.201453
H 1.415452 6.286777 11.445394
H 0.139829 6.424104 12.402500
H 0.960940 7.727889 11.970703
C 4.819811 6.822187 15.421098
H 4.932160 6.172338 16.145666
H 5.544137 6.715105 14.770513
H 4.844666 7.730341 15.789501
C 5.613511 6.955427 12.273374
C 5.597342 5.533933 12.197603
C 6.786270 4.813786 12.089791
H 6.746491 3.865579 12.055962
C 8.022940 5.433391 12.031209
C 8.036204 6.816465 11.994493
H 8.870137 7.263594 11.906070
C 6.869877 7.579118 12.081952
C 4.315279 4.727957 12.163636
H 3.644667 5.203696 11.631040
H 4.491221 3.851683 11.761679
H 3.980660 4.606979 13.076325
C 9.293934 4.627415 11.954613
H 10.060168 5.233123 11.875817
H 9.386830 4.086283 12.765541
H 9.260942 4.038872 11.171739
C 7.039917 9.076632 11.900295
H 7.873096 9.254829 11.416516
H 6.282586 9.432209 11.389013
H 7.073049 9.510682 12.777917
B 0.884367 3.671851 8.094698
Cl 1.649493 4.098299 9.755882
Cl 0.682340 5.329578 7.153956
C 1.931144 2.902658 7.114214
N 3.225424 2.536127 7.253654
C 3.663786 1.904589 6.108427
H 4.530013 1.544106 5.962661
C 2.647551 1.892327 5.243044
H 2.653295 1.527758 4.366109
N 1.589019 2.511768 5.868326
C 4.088943 2.690947 8.425834
H 3.704441 2.199677 9.181893
H 4.980064 2.337004 8.224787
H 4.158953 3.640789 8.656585
C 0.300083 2.735087 5.206190
H 0.187733 2.085238 4.481622
H -0.424243 2.628005 5.856775
H 0.275227 3.643241 4.837787
C -0.493618 2.868327 8.353914
C -0.477449 1.446833 8.429685
C -1.666377 0.726686 8.537497
H -1.626598 -0.221521 8.571326
C -2.903046 1.346291 8.596078
C -2.916310 2.729365 8.632795
H -3.750243 3.176494 8.721217
C -1.749983 3.492018 8.545335
C 0.804614 0.640857 8.463651
H 1.475226 1.116596 8.996248
H 0.628672 -0.235417 8.865608
H 1.139233 0.519879 7.550962
C -4.174041 0.540315 8.672674
H -4.940275 1.146023 8.751471
H -4.266937 -0.000817 7.861747
H -4.141048 -0.048228 9.455549
C -1.920024 4.989532 8.726993
H -2.753203 5.167729 9.210771
H -1.162693 5.345109 9.238275
H -1.953156 5.423582 7.849370
