118
Lattice="9.345000 0.000000 0.000000 1.207175 10.019541 0.000000 4.356517 -0.103164 11.923638"
P 3.735544 0.505379 4.760393
O 4.862266 1.513324 5.168062
O 4.012102 0.164431 3.264573
O 3.770270 -0.698025 5.635469
O 2.437207 1.279085 4.783883
C 6.213465 3.305230 4.309799
C 6.904516 0.968099 4.028759
C 6.004959 1.929241 4.460991
C 8.083576 1.405075 3.435439
H 8.701632 0.776394 3.140686
C 8.360589 2.748097 3.272919
C 6.673636 -0.511453 4.221802
H 6.139207 -0.637601 5.021044
H 7.530988 -0.938597 4.373590
C 6.661415 -2.201713 2.364696
H 7.534810 -2.413193 2.604123
C 4.680283 -0.924919 2.676857
C 5.985120 -1.210850 3.067475
C 7.417780 3.662174 3.702051
H 7.595455 4.567008 3.578284
C 5.186876 4.363572 4.740838
C 4.001504 -1.608526 1.666328
C 4.749733 -2.577748 1.009932
H 4.341240 -3.053736 0.321938
C 9.664207 3.196252 2.661356
H 9.641752 3.046145 1.713427
H 10.387604 2.696942 3.047682
H 9.794457 4.131583 2.834249
C 6.064370 -2.878992 1.317562
C 5.772202 5.784197 4.641872
H 6.541168 5.853400 5.213015
H 5.110480 6.423075 4.916116
H 6.030997 5.960376 3.734483
C 2.535119 -1.328804 1.298484
C 3.986030 4.290636 3.790525
H 4.284453 4.416676 2.887905
H 3.355164 4.978010 4.018266
H 3.565500 3.431260 3.871605
C 4.748728 4.175644 6.195522
H 4.166338 3.415616 6.258718
H 4.283858 4.960591 6.494806
H 5.522196 4.033610 6.746394
C 2.043977 -2.265075 0.191971
H 1.137744 -2.043677 -0.035771
H 2.082259 -3.173514 0.500793
H 2.602181 -2.166200 -0.581874
C 2.373356 0.099347 0.792922
H 1.464274 0.240981 0.519871
H 2.959041 0.242071 0.046502
H 2.595899 0.714472 1.496417
C 6.833336 -3.921291 0.537756
H 6.518586 -4.796067 0.777421
H 7.768410 -3.849923 0.742843
H 6.700038 -3.779892 -0.403019
C 1.630971 -1.572761 2.512311
H 1.851356 -0.946533 3.206266
H 1.761709 -2.467286 2.834249
H 0.712506 -1.455308 2.254760
H 1.707719 1.026080 5.317943
P 11.173148 9.410998 7.163245
O 10.046426 8.403052 6.755576
O 10.896590 9.751946 8.659065
O 11.138422 10.614401 6.288169
O 12.471485 8.637292 7.139755
C 8.695227 6.611147 7.613839
C 8.004176 8.948278 7.894879
C 8.903733 7.987136 7.462647
C 6.825116 8.511302 8.488199
H 6.207060 9.139983 8.782952
C 6.548103 7.168280 8.650719
C 8.235056 10.427830 7.701835
H 8.769485 10.553978 6.902594
H 7.377704 10.854974 7.550048
C 8.247277 12.118090 9.558942
H 7.373882 12.329570 9.319515
C 10.228409 10.841296 9.246781
C 8.923571 11.127226 8.856163
C 7.490912 6.254202 8.221587
H 7.313237 5.349369 8.345354
C 9.721816 5.552805 7.182800
C 10.907188 11.524903 10.257310
C 10.158959 12.494125 10.913706
H 10.567452 12.970112 11.601700
C 5.244485 6.720125 9.262282
H 5.266940 6.870232 10.210211
H 4.521088 7.219434 8.875956
H 5.114235 5.784793 9.089389
C 8.844322 12.795369 10.606076
C 9.136490 4.132180 7.281766
H 8.367524 4.062976 6.710623
H 9.798211 3.493302 7.007522
H 8.877695 3.956000 8.189155
C 12.373573 11.245181 10.625154
C 10.922662 5.625741 8.133113
H 10.624239 5.499701 9.035733
H 11.553528 4.938367 7.905372
H 11.343192 6.485117 8.052033
C 10.159964 5.740733 5.728116
H 10.742353 6.500761 5.664920
H 10.624834 4.955786 5.428832
H 9.386496 5.882766 5.177244
C 12.864715 12.181452 11.731667
H 13.770948 11.960054 11.959409
H 12.826433 13.089890 11.422845
H 12.306511 12.082577 12.505511
C 12.535335 9.817030 11.130716
H 13.444418 9.675396 11.403767
H 11.949651 9.674306 11.877136
H 12.312793 9.201905 10.427221
C 8.075356 13.837668 11.385882
H 8.390106 14.712443 11.146217
H 7.140282 13.766300 11.180795
H 8.208654 13.696268 12.326657
C 13.277721 11.489138 9.411327
H 13.057335 10.862909 8.717372
H 13.146983 12.383663 9.089389
H 14.196186 11.371685 9.668878
H 13.200973 8.890297 6.605695
