234
Lattice="6.600000 0.000000 0.000000 0.000000 6.600000 0.000000 0.000000 0.000000 8.810000"
C -0.195360 1.234200 0.872190
C 1.042800 1.443420 -0.007929
C 0.000000 0.000000 1.767286
H -0.356400 2.092200 1.444840
H 0.930600 0.112200 2.352270
H 1.914000 1.564200 0.616700
H 0.851400 2.336400 -0.563840
C -1.234200 -0.195360 -0.872190
C 0.195360 -1.234200 0.872190
C 1.234200 0.195360 -0.872190
C -1.443420 1.042800 0.007929
C -1.042800 -1.443420 -0.007929
C 1.443420 -1.042800 0.007929
C -0.000000 -0.000000 -1.767286
H -2.092200 -0.356400 -1.444840
H 0.356400 -2.092200 1.444840
H 2.092200 0.356400 -1.444840
H -0.112200 0.930600 -2.352270
H -0.930600 -0.112200 2.352270
H 0.112200 -0.930600 -2.352270
H -1.564200 1.914000 -0.616700
H -1.914000 -1.564200 0.616700
H 1.564200 -1.914000 -0.616700
H -2.336400 0.851400 0.563840
H -0.851400 -2.336400 -0.563840
H 2.336400 -0.851400 0.563840
C -0.195360 1.234200 9.682190
C 1.042800 1.443420 8.802071
C 0.000000 0.000000 10.577286
H -0.356400 2.092200 10.254840
H 0.930600 0.112200 11.162270
H 1.914000 1.564200 9.426700
H 0.851400 2.336400 8.246160
C -1.234200 -0.195360 7.937810
C 0.195360 -1.234200 9.682190
C 1.234200 0.195360 7.937810
C -1.443420 1.042800 8.817929
C -1.042800 -1.443420 8.802071
C 1.443420 -1.042800 8.817929
C 0.000000 0.000000 7.042714
H -2.092200 -0.356400 7.365160
H 0.356400 -2.092200 10.254840
H 2.092200 0.356400 7.365160
H -0.112200 0.930600 6.457730
H -0.930600 -0.112200 11.162270
H 0.112200 -0.930600 6.457730
H -1.564200 1.914000 8.193300
H -1.914000 -1.564200 9.426700
H 1.564200 -1.914000 8.193300
H -2.336400 0.851400 9.373840
H -0.851400 -2.336400 8.246160
H 2.336400 -0.851400 9.373840
C -0.195360 7.834200 0.872190
C 1.042800 8.043420 -0.007929
C 0.000000 6.600000 1.767286
H -0.356400 8.692200 1.444840
H 0.930600 6.712200 2.352270
H 1.914000 8.164200 0.616700
H 0.851400 8.936400 -0.563840
C -1.234200 6.404640 -0.872190
C 0.195360 5.365800 0.872190
C 1.234200 6.795360 -0.872190
C -1.443420 7.642800 0.007929
C -1.042800 5.156580 -0.007929
C 1.443420 5.557200 0.007929
C 0.000000 6.600000 -1.767286
H -2.092200 6.243600 -1.444840
H 0.356400 4.507800 1.444840
H 2.092200 6.956400 -1.444840
H -0.112200 7.530600 -2.352270
H -0.930600 6.487800 2.352270
H 0.112200 5.669400 -2.352270
H -1.564200 8.514000 -0.616700
H -1.914000 5.035800 0.616700
H 1.564200 4.686000 -0.616700
H -2.336400 7.451400 0.563840
H -0.851400 4.263600 -0.563840
H 2.336400 5.748600 0.563840
C -0.195360 7.834200 9.682190
C 1.042800 8.043420 8.802071
C 0.000000 6.600000 10.577286
H -0.356400 8.692200 10.254840
H 0.930600 6.712200 11.162270
H 1.914000 8.164200 9.426700
H 0.851400 8.936400 8.246160
C -1.234200 6.404640 7.937810
C 0.195360 5.365800 9.682190
C 1.234200 6.795360 7.937810
C -1.443420 7.642800 8.817929
C -1.042800 5.156580 8.802071
C 1.443420 5.557200 8.817929
C 0.000000 6.600000 7.042714
H -2.092200 6.243600 7.365160
H 0.356400 4.507800 10.254840
H 2.092200 6.956400 7.365160
H -0.112200 7.530600 6.457730
H -0.930600 6.487800 11.162270
H 0.112200 5.669400 6.457730
H -1.564200 8.514000 8.193300
H -1.914000 5.035800 9.426700
H 1.564200 4.686000 8.193300
H -2.336400 7.451400 9.373840
H -0.851400 4.263600 8.246160
H 2.336400 5.748600 9.373840
C 6.404640 1.234200 0.872190
C 7.642800 1.443420 -0.007929
C 6.600000 0.000000 1.767286
H 6.243600 2.092200 1.444840
H 7.530600 0.112200 2.352270
H 8.514000 1.564200 0.616700
H 7.451400 2.336400 -0.563840
C 5.365800 -0.195360 -0.872190
C 6.795360 -1.234200 0.872190
C 7.834200 0.195360 -0.872190
C 5.156580 1.042800 0.007929
C 5.557200 -1.443420 -0.007929
C 8.043420 -1.042800 0.007929
C 6.600000 -0.000000 -1.767286
H 4.507800 -0.356400 -1.444840
H 6.956400 -2.092200 1.444840
H 8.692200 0.356400 -1.444840
H 6.487800 0.930600 -2.352270
H 5.669400 -0.112200 2.352270
H 6.712200 -0.930600 -2.352270
H 5.035800 1.914000 -0.616700
H 4.686000 -1.564200 0.616700
H 8.164200 -1.914000 -0.616700
H 4.263600 0.851400 0.563840
H 5.748600 -2.336400 -0.563840
H 8.936400 -0.851400 0.563840
C 6.404640 1.234200 9.682190
C 7.642800 1.443420 8.802071
C 6.600000 0.000000 10.577286
H 6.243600 2.092200 10.254840
H 7.530600 0.112200 11.162270
H 8.514000 1.564200 9.426700
H 7.451400 2.336400 8.246160
C 5.365800 -0.195360 7.937810
C 6.795360 -1.234200 9.682190
C 7.834200 0.195360 7.937810
C 5.156580 1.042800 8.817929
C 5.557200 -1.443420 8.802071
C 8.043420 -1.042800 8.817929
C 6.600000 0.000000 7.042714
H 4.507800 -0.356400 7.365160
H 6.956400 -2.092200 10.254840
H 8.692200 0.356400 7.365160
H 6.487800 0.930600 6.457730
H 5.669400 -0.112200 11.162270
H 6.712200 -0.930600 6.457730
H 5.035800 1.914000 8.193300
H 4.686000 -1.564200 9.426700
H 8.164200 -1.914000 8.193300
H 4.263600 0.851400 9.373840
H 5.748600 -2.336400 8.246160
H 8.936400 -0.851400 9.373840
C 6.404640 7.834200 0.872190
C 7.642800 8.043420 -0.007929
C 6.600000 6.600000 1.767286
H 6.243600 8.692200 1.444840
H 7.530600 6.712200 2.352270
H 8.514000 8.164200 0.616700
H 7.451400 8.936400 -0.563840
C 5.365800 6.404640 -0.872190
C 6.795360 5.365800 0.872190
C 7.834200 6.795360 -0.872190
C 5.156580 7.642800 0.007929
C 5.557200 5.156580 -0.007929
C 8.043420 5.557200 0.007929
C 6.600000 6.600000 -1.767286
H 4.507800 6.243600 -1.444840
H 6.956400 4.507800 1.444840
H 8.692200 6.956400 -1.444840
H 6.487800 7.530600 -2.352270
H 5.669400 6.487800 2.352270
H 6.712200 5.669400 -2.352270
H 5.035800 8.514000 -0.616700
H 4.686000 5.035800 0.616700
H 8.164200 4.686000 -0.616700
H 4.263600 7.451400 0.563840
H 5.748600 4.263600 -0.563840
H 8.936400 5.748600 0.563840
C 6.404640 7.834200 9.682190
C 7.642800 8.043420 8.802071
C 6.600000 6.600000 10.577286
H 6.243600 8.692200 10.254840
H 7.530600 6.712200 11.162270
H 8.514000 8.164200 9.426700
H 7.451400 8.936400 8.246160
C 5.365800 6.404640 7.937810
C 6.795360 5.365800 9.682190
C 7.834200 6.795360 7.937810
C 5.156580 7.642800 8.817929
C 5.557200 5.156580 8.802071
C 8.043420 5.557200 8.817929
C 6.600000 6.600000 7.042714
H 4.507800 6.243600 7.365160
H 6.956400 4.507800 10.254840
H 8.692200 6.956400 7.365160
H 6.487800 7.530600 6.457730
H 5.669400 6.487800 11.162270
H 6.712200 5.669400 6.457730
H 5.035800 8.514000 8.193300
H 4.686000 5.035800 9.426700
H 8.164200 4.686000 8.193300
H 4.263600 7.451400 9.373840
H 5.748600 4.263600 8.246160
H 8.936400 5.748600 9.373840
C 3.495360 4.534200 3.532810
C 2.257200 4.743420 4.412929
C 3.300000 3.300000 2.637714
H 3.656400 5.392200 2.960160
H 2.369400 3.412200 2.052730
H 1.386000 4.864200 3.788300
H 2.448600 5.636400 4.968840
C 4.534200 3.104640 5.277190
C 3.104640 2.065800 3.532810
C 2.065800 3.495360 5.277190
C 4.743420 4.342800 4.397071
C 4.342800 1.856580 4.412929
C 1.856580 2.257200 4.397071
C 3.300000 3.300000 6.172286
H 5.392200 2.943600 5.849840
H 2.943600 1.207800 2.960160
H 1.207800 3.656400 5.849840
H 3.412200 4.230600 6.757270
H 4.230600 3.187800 2.052730
H 3.187800 2.369400 6.757270
H 4.864200 5.214000 5.021700
H 5.214000 1.735800 3.788300
H 1.735800 1.386000 5.021700
H 5.636400 4.151400 3.841160
H 4.151400 0.963600 4.968840
H 0.963600 2.448600 3.841160
