208
Lattice="12.015000 0.000000 0.000000 0.000000 11.556000 0.000000 -0.094994 0.000000 12.958652"
S 4.752473 9.961272 5.662931
S 4.238252 10.099944 3.693216
C 6.349803 9.048348 5.753641
C 6.771419 9.198576 7.243886
C 7.425312 9.741708 4.911329
C 6.256248 7.592292 5.403758
C 8.127499 8.562996 7.464183
C 8.781583 9.094572 5.105709
C 7.600408 6.922044 5.611096
C 9.155328 9.210132 6.570036
C 8.663902 7.603848 4.768784
C 8.033944 7.072272 7.114300
C 2.774132 9.013680 3.459960
C 1.685372 9.371916 4.470735
C 3.145457 7.511400 3.615464
C 2.291966 9.256356 2.034508
C 0.461742 8.516772 4.211562
C 1.921827 6.633144 3.356291
C 1.044211 8.412768 1.788294
C 0.809227 7.014492 4.341148
C 1.415726 6.933600 1.917880
C -0.056279 8.701668 2.760193
H 6.057974 8.701668 7.865902
H 6.817484 10.250172 7.516018
H 7.495313 10.781748 5.196419
H 7.156567 9.672372 3.874637
H 5.518678 7.130052 6.038732
H 5.963472 7.499844 4.367066
H 8.432289 8.713224 8.500876
H 9.519057 9.568368 4.483694
H 7.518298 5.870448 5.338965
H 9.237533 10.261728 6.829210
H 10.103278 8.724780 6.738499
H 9.611852 7.118496 4.937246
H 8.383142 7.511400 3.732092
H 8.994004 6.610032 7.269804
H 7.296374 6.598476 7.749274
H 2.050523 9.175464 5.468551
H 1.433722 10.411956 4.380024
H 3.931561 7.268724 2.915697
H 3.498497 7.338060 4.626239
H 2.040506 10.296396 1.917880
H 3.066056 9.002124 1.334741
H -0.288413 8.805672 4.924288
H 2.185397 5.593104 3.459960
H 0.703090 8.632332 0.790478
H -0.078458 6.425136 4.146769
H 1.150253 6.818040 5.351923
H 2.177801 6.667812 1.218113
H 0.527851 6.344244 1.749418
H -0.367814 9.730152 2.643565
H -0.895999 8.042976 2.578772
S 7.215030 4.183272 0.816395
S 7.729251 4.321944 2.786110
C 5.617700 3.270348 0.725685
C 5.196085 3.420576 -0.764560
C 4.542191 3.963708 1.567997
C 5.711256 1.814292 1.075568
C 3.840005 2.784996 -0.984858
C 3.185921 3.316572 1.373617
C 4.367095 1.144044 0.868230
C 2.812175 3.432132 -0.090711
C 3.303601 1.825848 1.710542
C 3.933560 1.294272 -0.634974
C 9.193371 3.235680 3.019366
C 10.282131 3.593916 2.008591
C 8.822046 1.733400 2.863862
C 9.675537 3.478356 4.444818
C 11.505761 2.738772 2.267764
C 10.045677 0.855144 3.123035
C 10.923292 2.634768 4.691032
C 11.158276 1.236492 2.138178
C 10.551777 1.155600 4.561445
C 12.023782 2.923668 3.719133
H 5.909529 2.923668 -1.386576
H 5.150019 4.472172 -1.036692
H 4.472191 5.003748 1.282907
H 4.810936 3.894372 2.604689
H 6.448825 1.352052 0.440594
H 6.004031 1.721844 2.112260
H 3.535214 2.935224 -2.021550
H 2.448446 3.790368 1.995632
H 4.449206 0.092448 1.140361
H 2.729970 4.483728 -0.349884
H 1.864225 2.946780 -0.259173
H 2.355651 1.340496 1.542080
H 3.584361 1.733400 2.747234
H 2.973500 0.832032 -0.790478
H 4.671129 0.820476 -1.269948
H 9.916981 3.397464 1.010775
H 10.533781 4.633956 2.099302
H 8.035942 1.490724 3.563629
H 8.469006 1.560060 1.853087
H 9.926997 4.518396 4.561445
H 8.901448 3.224124 5.144585
H 12.255916 3.027672 1.555038
H 9.782106 -0.184896 3.019366
H 11.264413 2.854332 5.688848
H 12.045961 0.647136 2.332557
H 10.817251 1.040040 1.127403
H 9.789703 0.889812 5.261213
H 11.439652 0.566244 4.729908
H 12.335317 3.952152 3.835761
H 12.863502 2.264976 3.900554
S 7.167534 1.594728 7.295721
S 7.681755 1.456056 9.265436
C 5.570204 2.507652 7.205010
C 5.148588 2.357424 5.714765
C 4.494694 1.814292 8.047323
C 5.663759 3.963708 7.554894
C 3.792508 2.993004 5.494468
C 3.138424 2.461428 7.852943
C 4.319599 4.633956 7.347556
C 2.764678 2.345868 6.388615
C 3.256104 3.952152 8.189868
C 3.886063 4.483728 5.844352
C 9.145875 2.542320 9.498692
C 10.234634 2.184084 8.487917
C 8.774550 4.044600 9.343188
C 9.628040 2.299644 10.924143
C 11.458264 3.039228 8.747090
C 9.998180 4.922856 9.602361
C 10.875796 3.143232 11.170358
C 11.110779 4.541508 8.617503
C 10.504280 4.622400 11.040771
C 11.976285 2.854332 10.198459
H 5.862033 2.854332 5.092750
H 5.102523 1.305828 5.442634
H 4.424694 0.774252 7.762232
H 4.763439 1.883628 9.084015
H 6.401328 4.425948 6.919920
H 5.956534 4.056156 8.591586
H 3.487717 2.842776 4.457776
H 2.400949 1.987632 8.474958
H 4.401709 5.685552 7.619687
H 2.682473 1.294272 6.129442
H 1.816728 2.831220 6.220153
H 2.308154 4.437504 8.021405
H 3.536865 4.044600 9.226560
H 2.926003 4.945968 5.688848
H 4.623633 4.957524 5.209378
H 9.869484 2.380536 7.490101
H 10.486284 1.144044 8.578628
H 7.988445 4.287276 10.042955
H 8.421509 4.217940 8.332413
H 9.879500 1.259604 11.040771
H 8.853951 2.553876 11.623911
H 12.208419 2.750328 8.034364
H 9.734610 5.962896 9.498692
H 11.216916 2.923668 12.168174
H 11.998464 5.130864 8.811883
H 10.769754 4.737960 7.606729
H 9.742206 4.888188 11.740539
H 11.392156 5.211756 11.209234
H 12.287820 1.825848 10.315087
H 12.816005 3.513024 10.379880
S 4.704976 7.372728 12.142257
S 4.190755 7.234056 10.172542
C 6.302306 8.285652 12.232967
C 6.723922 8.135424 13.723212
C 7.377816 7.592292 11.390655
C 6.208751 9.741708 11.883084
C 8.080002 8.771004 13.943509
C 8.734086 8.239428 11.585035
C 7.552911 10.411956 12.090422
C 9.107831 8.123868 13.049362
C 8.616406 9.730152 11.248110
C 7.986447 10.261728 13.593626
C 2.726635 8.320320 9.939286
C 1.637875 7.962084 10.950061
C 3.097960 9.822600 10.094790
C 2.244469 8.077644 8.513834
C 0.414245 8.817228 10.690888
C 1.874330 10.700856 9.835617
C 0.996714 8.921232 8.267620
C 0.761730 10.319508 10.820474
C 1.368229 10.400400 8.397206
C -0.103775 8.632332 9.239519
H 6.010477 8.632332 14.345228
H 6.769987 7.083828 13.995344
H 7.447816 6.552252 11.675745
H 7.109070 7.661628 10.353963
H 5.471181 10.203948 12.518058
H 5.915975 9.834156 10.846392
H 8.384792 8.620776 14.980202
H 9.471560 7.765632 10.963019
H 7.470801 11.463552 11.818290
H 9.190037 7.072272 13.308535
H 10.055782 8.609220 13.217825
H 9.564356 10.215504 11.416572
H 8.335645 9.822600 10.211418
H 8.946507 10.723968 13.749130
H 7.248877 10.735524 14.228600
H 2.003026 8.158536 11.947877
H 1.386225 6.922044 10.859350
H 3.884065 10.065276 9.395023
H 3.451001 9.995940 11.105565
H 1.993009 7.037604 8.397206
H 3.018559 8.331876 7.814067
H -0.335909 8.528328 11.403614
H 2.137900 11.740896 9.939286
H 0.655594 8.701668 7.269804
H -0.125955 10.908864 10.626094
H 1.102756 10.515960 11.831249
H 2.130304 10.666188 7.697439
H 0.480354 10.989756 8.228744
H -0.415310 7.603848 9.122891
H -0.943496 9.291024 9.058098
