112
Lattice="7.629900 0.000000 0.000000 0.000000 11.338800 0.000000 -3.238397 0.000000 14.050532"
Cl -0.349637 12.516675 1.619605
O -1.401547 8.115179 6.488114
N -1.288249 5.966477 10.988640
C 0.623021 12.456806 5.476898
N -0.376651 9.745699 7.669062
H -0.106082 10.037106 8.431724
C 0.095509 12.117776 4.233425
H -0.397510 11.336532 4.128046
N -0.205256 10.487256 6.521555
C 0.312957 12.954579 3.164180
C 1.027935 14.136082 3.286420
H 1.165697 14.691683 2.552982
C 1.526108 14.459238 4.521461
H 2.002550 15.251820 4.622625
C 1.341535 13.642844 5.620213
H 1.693603 13.882093 6.446384
C 0.418210 11.596191 6.640282
H 0.743365 11.856983 7.470668
C -0.990180 8.538116 7.553566
C -1.118170 7.722857 8.804064
C -1.791649 6.513007 8.716950
H -2.204251 6.264687 7.921690
C -1.847300 5.686408 9.805867
H -2.301802 4.880220 9.718753
C -0.670208 7.138908 11.074630
H -0.287643 7.370220 11.890966
C -0.559628 8.038075 10.032080
H -0.115187 8.846532 10.152915
Cl 2.545389 6.847275 5.405661
O 3.597298 2.445779 0.537152
N 3.484000 0.297077 -3.963374
C 1.572730 6.787406 1.548369
N 2.572403 4.076299 -0.643795
H 2.301834 4.367706 -1.406458
C 2.100243 6.448376 2.791841
H 2.593262 5.667132 2.897220
N 2.401007 4.817856 0.503712
C 1.882794 7.285179 3.861086
C 1.167816 8.466682 3.738847
H 1.030054 9.022283 4.472284
C 0.669643 8.789838 2.503805
H 0.193201 9.582420 2.402641
C 0.854217 7.973444 1.405053
H 0.502149 8.212693 0.578882
C 1.777541 5.926791 0.384985
H 1.452387 6.187583 -0.445402
C 3.185932 2.868716 -0.528300
C 3.313921 2.053457 -1.778797
C 3.987401 0.843607 -1.691684
H 4.400003 0.595287 -0.896424
C 4.043051 0.017008 -2.780600
H 4.497553 -0.789180 -2.693487
C 2.865960 1.469508 -4.049363
H 2.483394 1.700820 -4.865699
C 2.755379 2.368675 -3.006814
H 2.310938 3.177132 -3.127649
Cl 4.741140 -1.177875 12.430928
O 5.793050 3.223621 7.562418
N 5.679752 5.372323 3.061892
C 3.768482 -1.118006 8.573635
N 4.768154 1.593101 6.381471
H 4.497585 1.301694 5.618808
C 4.295994 -0.778976 9.817107
H 4.789013 0.002268 9.922486
N 4.596759 0.851544 7.528978
C 4.078546 -1.615779 10.886353
C 3.363567 -2.797282 10.764113
H 3.225806 -3.352883 11.497551
C 2.865395 -3.120438 9.529071
H 2.388953 -3.913020 9.427907
C 3.049968 -2.304044 8.430319
H 2.697900 -2.543293 7.604148
C 3.973293 -0.257391 7.410251
H 3.648138 -0.518183 6.579864
C 5.381683 2.800684 6.496966
C 5.509672 3.615943 5.246469
C 6.183152 4.825793 5.333582
H 6.595754 5.074113 6.128842
C 6.238803 5.652392 4.244666
H 6.693304 6.458580 4.331779
C 5.061711 4.199892 2.975903
H 4.679146 3.968580 2.159567
C 4.951130 3.300725 4.018452
H 4.506690 2.492268 3.897618
Cl 1.846114 4.491525 8.644871
O 0.794205 8.893021 13.513381
N 0.907502 11.041723 18.013907
C 2.818772 4.551394 12.502164
N 1.819100 7.262501 14.694328
H 2.089669 6.971094 15.456991
C 2.291260 4.890424 11.258692
H 1.798241 5.671668 11.153313
N 1.990495 6.520944 13.546821
C 2.508709 4.053621 10.189446
C 3.223687 2.872118 10.311686
H 3.361449 2.316517 9.578248
C 3.721860 2.548962 11.546728
H 4.198302 1.756380 11.647891
C 3.537286 3.365356 12.645479
H 3.889354 3.126107 13.471650
C 2.613961 5.412009 13.665548
H 2.939116 5.151217 14.495934
C 1.205571 8.470084 14.578832
C 1.077582 9.285343 15.829330
C 0.404102 10.495193 15.742217
H -0.008500 10.743513 14.946956
C 0.348452 11.321792 16.831133
H -0.106050 12.127980 16.744019
C 1.525543 9.869292 18.099896
H 1.908109 9.637980 18.916232
C 1.636124 8.970125 17.057346
H 2.080564 8.161668 17.178181
