112
Lattice="6.021600 0.000000 0.000000 1.241577 7.912280 0.000000 2.983465 2.607783 24.045692"
C 7.144042 7.689638 18.112418
C 5.863016 8.191715 17.970548
H 5.240530 8.070743 18.649839
C 5.505205 8.870864 16.827656
H 4.645881 9.216154 16.743015
C 6.423438 9.041902 15.800184
C 7.707620 8.552979 15.946622
H 8.330637 8.677830 15.266610
C 8.071246 7.877961 17.098411
H 8.937027 7.551911 17.192670
C 6.073020 9.738347 14.532254
C 4.334687 10.688152 13.236673
H 4.785017 11.529143 13.133757
H 3.387568 10.835319 13.280436
H 4.537813 10.122610 12.486928
C 7.493222 6.920765 19.339950
C 9.254963 6.032624 20.656933
H 10.187351 5.793372 20.537426
H 8.744917 5.208711 20.705745
C 10.445150 8.060302 22.091980
H 11.257620 7.585405 21.900816
H 10.534765 8.527286 22.925163
H 10.270646 8.690590 21.388643
O 6.860810 9.979009 13.657953
O 4.780012 10.047754 14.459636
O 6.681453 6.464215 20.098592
O 8.816111 6.780052 19.495045
S 9.084742 6.896217 22.201868
C 3.102599 2.830425 5.933275
C 4.383626 2.328347 6.075144
H 5.006112 2.449320 5.395853
C 4.741437 1.649199 7.218036
H 5.600760 1.303908 7.302677
C 3.823204 1.478161 8.245508
C 2.539022 1.967083 8.099070
H 1.916005 1.842233 8.779082
C 2.175395 2.642102 6.947281
H 1.309614 2.968151 6.853022
C 4.173622 0.781715 9.513438
C 5.911954 -0.168090 10.809019
H 5.461624 -1.009081 10.911935
H 6.859073 -0.315257 10.765256
H 5.708828 0.397453 11.558764
C 2.753419 3.599297 4.705742
C 0.991679 4.487439 3.388759
H 0.059290 4.726691 3.508266
H 1.501724 5.311352 3.339947
C -0.198508 2.459761 1.953712
H -1.010978 2.934658 2.144876
H -0.288123 1.992777 1.120529
H -0.024004 1.829472 2.657049
O 3.385832 0.541054 10.387739
O 5.466629 0.472308 9.586056
O 3.565189 4.055848 3.947100
O 1.430531 3.740010 4.550647
S 1.161900 3.623846 1.843824
C 3.816330 6.788425 5.921252
C 5.097969 6.289886 6.103037
H 5.738691 6.401450 5.439136
C 5.422207 5.625318 7.270936
H 6.283231 5.294755 7.389241
C 4.473169 5.448464 8.266668
C 3.194166 5.948725 8.078872
H 2.548874 5.830336 8.738204
C 2.874553 6.620692 6.920831
H 2.018218 6.964697 6.809740
C 4.787245 4.745845 9.536041
C 6.497553 3.780580 10.856870
H 6.288491 4.344305 11.604451
H 7.445200 3.628413 10.825371
H 6.041614 2.940946 10.950408
C 3.414903 7.507199 4.684101
C 4.068994 8.112453 2.487767
H 4.900432 8.288788 2.019838
H 3.645308 8.966600 2.666667
C 4.131015 5.845488 0.962068
H 4.947085 6.226451 0.629997
H 3.727569 5.306158 0.278930
H 4.322074 5.300415 1.728885
O 3.982857 4.510505 10.393750
O 6.073257 4.424195 9.634387
O 2.348003 8.051194 4.534777
O 4.371755 7.471245 3.747040
S 3.006972 7.157586 1.428314
C 6.430312 3.731637 18.124440
C 5.148672 4.230177 17.942655
H 4.507950 4.118613 18.606557
C 4.824434 4.894745 16.774756
H 3.963411 5.225307 16.656451
C 5.773473 5.071598 15.779024
C 7.052475 4.571337 15.966820
H 7.697768 4.689726 15.307488
C 7.372088 3.899370 17.124861
H 8.228423 3.555366 17.235952
C 5.459397 5.774218 14.509652
C 3.749089 6.739483 13.188822
H 3.958151 6.175757 12.441241
H 2.801442 6.891650 13.220321
H 4.205027 7.579117 13.095284
C 6.831739 3.012864 19.361591
C 6.177647 2.407610 21.557925
H 5.346209 2.231275 22.025854
H 6.601333 1.553462 21.379025
C 6.115626 4.674575 23.083624
H 5.299557 4.293611 23.415695
H 6.519073 5.213904 23.766762
H 5.924567 5.219648 22.316807
O 6.263784 6.009558 13.651942
O 4.173384 6.095868 14.411305
O 7.898638 2.468869 19.510915
O 5.874887 3.048817 20.298652
S 7.239670 3.362476 22.617378
