280
Lattice="7.282200 0.000000 0.000000 0.000000 9.722600 0.000000 0.000000 0.000000 33.427000"
C 5.221337 5.330902 5.272441
H 6.173121 5.133533 5.084247
H 5.076422 6.299273 5.131044
C 1.750641 6.813598 7.122625
H 1.230692 6.446084 6.364501
H 1.639951 7.797525 7.116608
C 4.910387 4.980888 6.729189
H 5.205317 4.053352 6.912704
H 5.417957 5.585634 7.327198
C 3.425547 5.103393 7.037052
C 3.080371 4.595873 8.426278
H 3.008277 3.609029 8.393520
H 3.823155 4.822410 9.038661
C 1.227051 4.620180 10.153117
H 1.618105 3.853066 10.556247
C 2.879382 4.750462 4.740283
H 2.684219 5.728556 4.673095
C 0.106320 5.187979 10.720707
H -0.273082 4.802964 11.502231
C 1.878079 4.019323 3.862490
H 0.961250 4.164190 4.205117
H 2.065232 3.047063 3.877532
C 1.986584 4.548232 2.431146
H 1.671993 5.486463 2.406744
H 1.394541 4.015434 1.845170
C -0.471887 6.316773 10.159134
H -1.231420 6.722206 10.559589
C 0.079376 6.840821 9.001557
H -0.313863 7.607935 8.604110
C 3.416808 4.487952 1.886620
H 3.668044 3.526387 1.771631
C 1.201563 6.263299 8.408228
C 4.423936 5.136450 2.862688
H 4.142115 6.092181 2.951604
C 4.331453 4.532676 4.290021
C 1.797975 5.153950 8.994537
C 5.851976 5.171451 2.300112
H 6.211717 4.248776 2.273036
H 6.425813 5.702305 2.908149
C 5.919700 5.777169 0.885815
H 5.696137 6.740679 0.929271
H 6.842355 5.693555 0.538175
C 4.954081 5.078114 -0.065183
C 3.537693 5.179229 0.532492
H 3.370202 6.151489 0.695282
C 2.610669 4.769908 -0.624082
H 1.727338 5.209369 -0.541517
H 2.481046 3.787925 -0.641798
C 3.357822 5.257010 -1.897985
H 3.480892 4.511286 -2.537109
H 2.851710 5.980371 -2.346575
C 4.715953 5.773280 -1.400257
H 4.660608 6.761096 -1.253513
C 5.387372 3.624585 -0.307863
H 5.384459 3.136511 0.541517
H 6.291093 3.611946 -0.688596
H 4.764743 3.197763 -0.932613
C 4.743625 3.049007 4.334479
H 4.332181 2.572600 3.583374
H 4.442142 2.651353 5.177842
H 5.719440 2.979005 4.271971
C 5.791534 6.111626 -3.484430
C 6.938480 5.679943 -4.352864
H 7.762825 5.670220 -3.824049
H 7.036062 6.306078 -5.100960
H 6.763707 4.780602 -4.699836
O 2.655818 4.351836 6.107781
O 5.814108 5.482574 -2.303789
O 3.129890 6.498586 6.939111
O 4.950440 6.903046 -3.798310
C 5.701963 4.391698 21.985941
H 4.750179 4.589067 21.797747
H 5.846878 3.423327 21.844544
C 9.172659 2.909002 23.836125
H 9.692608 3.276516 23.078001
H 9.283349 1.925075 23.830108
C 6.012913 4.741712 23.442689
H 5.717983 5.669248 23.626204
H 5.505343 4.136966 24.040698
C 7.497753 4.619207 23.750552
C 7.842929 5.126727 25.139778
H 7.915023 6.113571 25.107020
H 7.100145 4.900190 25.752161
C 9.696249 5.102420 26.866617
H 9.305195 5.869534 27.269747
C 8.043918 4.972138 21.453783
H 8.239081 3.994044 21.386595
C 10.816980 4.534621 27.434207
H 11.196383 4.919636 28.215731
C 9.045221 5.703277 20.575990
H 9.962050 5.558410 20.918617
H 8.858068 6.675537 20.591032
C 8.936716 5.174368 19.144646
H 9.251307 4.236137 19.120244
H 9.528759 5.707166 18.558670
C 11.395187 3.405827 26.872634
H 12.154720 3.000394 27.273089
C 10.843924 2.881779 25.715057
H 11.237163 2.114666 25.317610
C 7.506492 5.234648 18.600120
H 7.255256 6.196213 18.485131
C 9.721737 3.459301 25.121728
C 6.499364 4.586150 19.576188
H 6.781185 3.630419 19.665104
C 6.591847 5.189924 21.003521
C 9.125325 4.568650 25.708037
C 5.071324 4.551149 19.013612
H 4.711583 5.473824 18.986536
H 4.497487 4.020295 19.621649
C 5.003600 3.945431 17.599315
H 5.227163 2.981921 17.642771
H 4.080945 4.029045 17.251675
C 5.969219 4.644486 16.648317
C 7.385607 4.543371 17.245992
H 7.553098 3.571111 17.408782
C 8.312631 4.952692 16.089418
H 9.195962 4.513231 16.171983
H 8.442254 5.934675 16.071702
C 7.565478 4.465590 14.815515
H 7.442408 5.211314 14.176391
H 8.071590 3.742229 14.366925
C 6.207347 3.949320 15.313243
H 6.262692 2.961504 15.459988
C 5.535928 6.098015 16.405637
H 5.538841 6.586089 17.255017
H 4.632207 6.110654 16.024904
H 6.158557 6.524837 15.780887
C 6.179675 6.673593 21.047979
H 6.591119 7.150000 20.296874
H 6.481158 7.071247 21.891342
H 5.203860 6.743595 20.985471
C 5.131766 3.610974 13.229070
C 3.984820 4.042657 12.360636
H 3.160475 4.052380 12.889451
H 3.887238 3.416522 11.612540
H 4.159593 4.941998 12.013664
O 8.267482 5.370764 22.821281
O 5.109192 4.240026 14.409711
O 7.793410 3.224014 23.652611
O 5.972860 2.819554 12.915190
C 1.580237 9.252998 28.154559
H 2.532021 9.450367 28.342753
H 1.435322 8.284627 28.295956
C -1.890459 7.770302 26.304375
H -2.410408 8.137816 27.062499
H -2.001149 6.786375 26.310392
C 1.269287 9.603012 26.697811
H 1.564217 10.530548 26.514296
H 1.776857 8.998266 26.099802
C -0.215553 9.480507 26.389948
C -0.560729 9.988027 25.000722
H -0.632823 10.974871 25.033480
H 0.182055 9.761490 24.388339
C -2.414049 9.963720 23.273883
H -2.022995 10.730834 22.870753
C -0.761718 9.833438 28.686717
H -0.956881 8.855344 28.753905
C -3.534780 9.395921 22.706293
H -3.914182 9.780936 21.924769
C -1.763021 10.564577 29.564510
H -2.679850 10.419710 29.221883
H -1.575868 11.536837 29.549468
C -1.654516 10.035668 30.995854
H -1.969107 9.097437 31.020256
H -2.246559 10.568466 31.581830
C -4.112987 8.267127 23.267866
H -4.872520 7.861694 22.867411
C -3.561724 7.743079 24.425443
H -3.954963 6.975966 24.822890
C -0.224292 10.095948 31.540380
H 0.026944 11.057513 31.655369
C -2.439537 8.320601 25.018772
C 0.782837 9.447450 30.564312
H 0.501015 8.491719 30.475396
C 0.690353 10.051224 29.136979
C -1.843125 9.429950 24.432463
C 2.210876 9.412449 31.126888
H 2.570617 10.335124 31.153964
H 2.784713 8.881595 30.518851
C 2.278600 8.806731 32.541184
H 2.055037 7.843221 32.497729
H 3.201255 8.890345 32.888825
C 1.312981 9.505786 33.492183
C -0.103407 9.404671 32.894508
H -0.270898 8.432411 32.731718
C -1.030431 9.813992 34.051082
H -1.913762 9.374531 33.968517
H -1.160054 10.795975 34.068798
C -0.283278 9.326890 35.324985
H -0.160208 10.072614 35.964109
H -0.789390 8.603529 35.773575
C 1.074853 8.810620 34.827257
H 1.019508 7.822804 34.680513
C 1.746272 10.959315 33.734863
H 1.743359 11.447389 32.885483
H 2.649993 10.971954 34.115596
H 1.123643 11.386137 34.359613
C 1.102525 11.534893 29.092521
H 0.691081 12.011300 29.843626
H 0.801042 11.932547 28.249158
H 2.078340 11.604895 29.155029
C 2.150434 8.472274 36.911430
C 3.297380 8.903957 37.779864
H 4.121725 8.913680 37.251049
H 3.394962 8.277822 38.527960
H 3.122607 9.803298 38.126836
O -0.985282 10.232064 27.319219
O 2.173008 9.101326 35.730789
O -0.511210 8.085314 26.487889
O 1.309340 7.680854 37.225310
C 2.060863 0.469602 11.441059
H 1.109079 0.272233 11.629253
H 2.205778 1.437973 11.582455
C 5.531559 1.952298 9.590875
H 6.051508 1.584784 10.348999
H 5.642249 2.936225 9.596892
C 2.371813 0.119588 9.984311
H 2.076883 -0.807948 9.800796
H 1.864243 0.724334 9.386302
C 3.856653 0.242093 9.676448
C 4.201829 -0.265427 8.287222
H 4.273923 -1.252271 8.319980
H 3.459045 -0.038890 7.674839
C 6.055149 -0.241120 6.560383
H 5.664095 -1.008234 6.157253
C 4.402818 -0.110838 11.973217
H 4.597981 0.867256 12.040405
C 7.175880 0.326679 5.992793
H 7.555283 -0.058336 5.211269
C 5.404121 -0.841977 12.851010
H 6.320950 -0.697110 12.508383
H 5.216968 -1.814237 12.835968
C 5.295616 -0.313068 14.282354
H 5.610207 0.625163 14.306756
H 5.887659 -0.845866 14.868330
C 7.754087 1.455473 6.554366
H 8.513620 1.860906 6.153911
C 7.202824 1.979521 7.711943
H 7.596063 2.746635 8.109390
C 3.865392 -0.373348 14.826880
H 3.614156 -1.334913 14.941869
C 6.080637 1.401999 8.305272
C 2.858264 0.275150 13.850812
H 3.140085 1.230881 13.761896
C 2.950747 -0.328624 12.423479
C 5.484225 0.292650 7.718963
C 1.430224 0.310151 14.413388
H 1.070483 -0.612524 14.440464
H 0.856387 0.841005 13.805351
C 1.362500 0.915869 15.827684
H 1.586063 1.879379 15.784229
H 0.439845 0.832255 16.175325
C 2.328119 0.216814 16.778683
C 3.744507 0.317929 16.181008
H 3.911998 1.290189 16.018218
C 4.671531 -0.091392 17.337582
H 5.554862 0.348069 17.255017
H 4.801154 -1.073375 17.355298
C 3.924378 0.395710 18.611485
H 3.801308 -0.350014 19.250609
H 4.430490 1.119071 19.060075
C 2.566247 0.911980 18.113757
H 2.621592 1.899796 17.967012
C 1.894828 -1.236715 17.021363
H 1.897741 -1.724789 16.171983
H 0.991107 -1.249354 17.402096
H 2.517457 -1.663537 17.646113
C 2.538575 -1.812293 12.379021
H 2.950019 -2.288700 13.130126
H 2.840058 -2.209947 11.535658
H 1.562760 -1.882295 12.441529
C 1.490666 1.250326 20.197930
C 0.343720 0.818643 21.066364
H -0.480625 0.808920 20.537549
H 0.246138 1.444778 21.814460
H 0.518493 -0.080698 21.413336
O 4.626382 -0.509464 10.605719
O 1.468092 0.621274 19.017289
O 4.152310 1.637286 9.774389
O 2.331760 2.041746 20.511810
