164
Lattice="6.235200 0.000000 0.000000 0.000000 17.664400 0.000000 -2.004798 0.000000 15.323007"
N 1.910185 2.116902 7.790676
C 2.383859 2.634115 6.649878
H 1.779255 3.103635 6.087831
C 3.707531 2.525303 6.239069
H 3.995985 2.911093 5.419748
C 4.599176 1.838334 7.054866
H 5.513665 1.754075 6.811077
C 4.122854 1.276959 8.237342
H 4.704588 0.791365 8.810729
C 2.775389 1.439649 8.566940
C 2.216610 0.889579 9.834459
C 1.033515 1.417215 10.360804
H 0.571964 2.112662 9.906324
C 0.540163 0.909363 11.563354
C 1.223559 -0.149088 12.164169
H 0.900924 -0.538764 12.967861
C 2.393292 -0.625850 11.560289
N 2.906807 -0.099274 10.431903
C 3.155604 -1.747009 12.182710
C 4.516577 -1.919944 11.917622
H 4.959440 -1.365458 11.285395
C 5.211731 -2.914979 12.591068
H 6.143701 -3.032977 12.451475
C 4.519613 -3.737964 13.475665
H 4.966857 -4.424932 13.954662
C 3.153017 -3.524754 13.638855
H 2.675232 -4.106973 14.218218
N 2.472951 -2.545440 13.025935
C -0.671609 1.460316 12.194509
S -1.472449 2.872090 11.516282
C -2.681090 2.740985 12.752572
C -3.833596 3.517159 12.944570
H -4.036061 4.248288 12.371796
C -4.667575 3.179945 14.000325
H -5.454330 3.690093 14.152329
C -4.375992 2.102594 14.849373
H -4.968488 1.895390 15.562046
C -3.235508 1.335252 14.663964
H -3.038970 0.609422 15.244859
C -2.376824 1.654801 13.598096
N -1.225728 0.951405 13.259611
N -1.799782 10.949102 15.193834
C -2.273456 11.466315 16.334632
H -1.668852 11.935835 16.896680
C -3.597128 11.357503 16.745442
H -3.885582 11.743293 17.564763
C -4.488773 10.670534 15.929645
H -5.403262 10.586275 16.173434
C -4.012451 10.109159 14.747168
H -4.594185 9.623565 14.173781
C -2.664986 10.271849 14.417570
C -2.106207 9.721779 13.150051
C -0.923112 10.249415 12.623706
H -0.461561 10.944862 13.078186
C -0.429761 9.741563 11.421156
C -1.113156 8.683112 10.820341
H -0.790521 8.293436 10.016650
C -2.282889 8.206350 11.424221
N -2.796404 8.732926 12.552607
C -3.045201 7.085191 10.801800
C -4.406174 6.912256 11.066888
H -4.849037 7.466742 11.699116
C -5.101329 5.917221 10.393442
H -6.033299 5.799223 10.533035
C -4.409210 5.094236 9.508845
H -4.856454 4.407268 9.029848
C -3.042614 5.307446 9.345655
H -2.564829 4.725227 8.766292
N -2.362548 6.286760 9.958575
C 0.782012 10.292516 10.790002
S 1.582851 11.704290 11.468229
C 2.791493 11.573185 10.231938
C 3.943999 12.349359 10.039941
H 4.146464 13.080488 10.612715
C 4.777978 12.012145 8.984185
H 5.564733 12.522293 8.832181
C 4.486395 10.934794 8.135138
H 5.078890 10.727590 7.422464
C 3.345911 10.167452 8.320546
H 3.149372 9.441622 7.739651
C 2.487227 10.487001 9.386414
N 1.336131 9.783605 9.724899
N 2.320217 15.547498 7.532330
C 1.846543 15.030285 8.673128
H 2.451147 14.560765 9.235176
C 0.522871 15.139097 9.083938
H 0.234417 14.753307 9.903259
C -0.368774 15.826066 8.268141
H -1.283263 15.910325 8.511930
C 0.107548 16.387441 7.085665
H -0.474186 16.873035 6.512278
C 1.455013 16.224751 6.756067
C 2.013792 16.774821 5.488548
C 3.196887 16.247185 4.962203
H 3.658438 15.551738 5.416683
C 3.690238 16.755037 3.759653
C 3.006843 17.813488 3.158838
H 3.329478 18.203164 2.355146
C 1.837110 18.290250 3.762718
N 1.323595 17.763674 4.891104
C 1.074798 19.411409 3.140297
C -0.286175 19.584344 3.405385
H -0.729038 19.029858 4.037612
C -0.981330 20.579379 2.731939
H -1.913299 20.697377 2.871531
C -0.289211 21.402364 1.847342
H -0.736455 22.089332 1.368345
C 1.077385 21.189154 1.684152
H 1.555170 21.771373 1.104789
N 1.757451 20.209840 2.297072
C 4.902011 16.204084 3.128498
S 5.702850 14.792310 3.806725
C 6.911492 14.923415 2.570434
C 8.063998 14.147241 2.378437
H 8.266463 13.416112 2.951211
C 8.897977 14.484455 1.322682
H 9.684732 13.974307 1.170678
C 8.606394 15.561806 0.473634
H 9.198889 15.769010 -0.239039
C 7.465910 16.329148 0.659043
H 7.269372 17.054978 0.078147
C 6.607226 16.009599 1.724911
N 5.456130 16.712995 2.063396
N 6.030184 6.715298 0.129173
C 6.503858 6.198085 -1.011625
H 5.899254 5.728565 -1.573673
C 7.827530 6.306897 -1.422435
H 8.115984 5.921107 -2.241756
C 8.719175 6.993866 -0.606638
H 9.633664 7.078125 -0.850427
C 8.242853 7.555241 0.575839
H 8.824587 8.040835 1.149226
C 6.895388 7.392551 0.905436
C 6.336609 7.942621 2.172956
C 5.153514 7.414985 2.699301
H 4.691963 6.719538 2.244820
C 4.660163 7.922837 3.901850
C 5.343558 8.981288 4.502666
H 5.020923 9.370964 5.306357
C 6.513291 9.458050 3.898786
N 7.026806 8.931474 2.770400
C 7.275603 10.579209 4.521206
C 8.636576 10.752144 4.256118
H 9.079439 10.197658 3.623891
C 9.331731 11.747179 4.929565
H 10.263700 11.865177 4.789972
C 8.639612 12.570164 5.814162
H 9.086856 13.257132 6.293159
C 7.273016 12.356954 5.977352
H 6.795231 12.939173 6.556715
N 6.592950 11.377640 5.364431
C 3.448390 7.371884 4.533005
S 2.647551 5.960110 3.854778
C 1.438909 6.091215 5.091069
C 0.286403 5.315041 5.283066
H 0.083938 4.583912 4.710292
C -0.547576 5.652255 6.338821
H -1.334331 5.142107 6.490826
C -0.255993 6.729606 7.187869
H -0.848488 6.936810 7.900542
C 0.884491 7.496948 7.002461
H 1.081029 8.222778 7.583356
C 1.743175 7.177399 5.936593
N 2.894271 7.880795 5.598107
