728
Lattice="7.332400 0.000000 0.000000 0.559412 7.316946 0.000000 0.108723 0.239686 37.983088"
C 4.893022 3.950191 1.007311
C 6.726993 4.153480 5.626055
C 7.752485 4.610597 6.523216
C 7.045307 4.140931 4.217262
C 5.121955 4.281325 -0.319438
H 5.914556 4.710101 -0.550755
C 5.932135 4.255837 2.018801
H 6.619598 4.825648 1.758617
C 8.307261 4.413429 3.802107
H 8.512290 4.322848 2.898110
C 5.481561 3.872319 6.175670
H 4.795226 3.592193 5.613900
C 5.970881 3.793883 3.254011
H 5.292901 3.222747 3.536226
C 9.042816 4.921320 6.020319
H 9.713882 5.192812 6.605259
C 9.305709 4.824327 4.679896
H 10.152389 5.033015 4.356660
C 3.699601 3.330878 1.307758
H 3.512254 3.106703 2.191624
C 5.230039 3.993442 7.513435
H 4.387621 3.782625 7.847306
C 7.422422 4.729102 7.909978
H 8.072743 5.026263 8.504413
C 6.214715 4.426175 8.372992
H 6.033850 4.506551 9.283067
C 2.998789 3.366756 -1.007311
C 1.164818 3.163467 -5.626055
C 0.139327 2.706350 -6.523216
C 0.846505 3.176015 -4.217262
C 2.769857 3.035622 0.319438
H 1.977256 2.606845 0.550755
C 1.959677 3.061110 -2.018801
H 1.272213 2.491298 -1.758617
C -0.415449 2.903518 -3.802107
H -0.620479 2.994099 -2.898110
C 2.410250 3.444628 -6.175670
H 3.096586 3.724753 -5.613900
C 1.920931 3.523063 -3.254011
H 2.598911 4.094199 -3.536226
C -1.151004 2.395626 -6.020319
H -1.822070 2.124135 -6.605259
C -1.413897 2.492620 -4.679896
H -2.260577 2.283931 -4.356660
C 4.192211 3.986069 -1.307758
H 4.379558 4.210243 -2.191624
C 2.661772 3.323505 -7.513435
H 3.504190 3.534321 -7.847306
C 0.469389 2.587845 -7.909978
H -0.180932 2.290684 -8.504413
C 1.677097 2.890771 -8.372992
H 1.857961 2.810395 -9.283067
C 5.001745 4.189877 38.990400
C 6.835716 4.393166 43.609143
C 7.861208 4.850283 44.506304
C 7.154030 4.380618 42.200350
C 5.230678 4.521011 37.663650
H 6.023279 4.949788 37.432333
C 6.040858 4.495523 40.001889
H 6.728321 5.065335 39.741705
C 8.415984 4.653115 41.785195
H 8.621013 4.562534 40.881198
C 5.590284 4.112005 44.158758
H 4.903948 3.831880 43.596989
C 6.079604 4.033570 41.237099
H 5.401624 3.462434 41.519314
C 9.151539 5.161007 44.003408
H 9.822605 5.432498 44.588347
C 9.414432 5.064013 42.662984
H 10.261112 5.272701 42.339748
C 3.808324 3.570564 39.290846
H 3.620977 3.346390 40.174712
C 5.338762 4.233128 45.496523
H 4.496344 4.022312 45.830394
C 7.531145 4.968788 45.893066
H 8.181466 5.265949 46.487502
C 6.323438 4.665862 46.356080
H 6.142573 4.746237 47.266155
C 3.107512 3.606442 36.975777
C 1.273541 3.403153 32.357033
C 0.248050 2.946036 31.459873
C 0.955228 3.415701 33.765826
C 2.878580 3.275308 38.302526
H 2.085979 2.846531 38.533843
C 2.068400 3.300796 35.964287
H 1.380936 2.730985 36.224471
C -0.306726 3.143204 34.180981
H -0.511756 3.233785 35.084979
C 2.518973 3.684314 31.807418
H 3.205309 3.964440 32.369188
C 2.029654 3.762750 34.729077
H 2.707634 4.333886 34.446863
C -1.042281 2.635312 31.962769
H -1.713348 2.363821 31.377829
C -1.305174 2.732306 33.303192
H -2.151854 2.523618 33.626428
C 4.300934 4.225755 36.675330
H 4.488281 4.449930 35.791464
C 2.770495 3.563191 30.469653
H 3.612913 3.774008 30.135782
C 0.578112 2.827531 30.073110
H -0.072209 2.530370 29.478675
C 1.785819 3.130457 29.610096
H 1.966684 3.050082 28.700021
C 2.853904 0.787954 5.552748
C 2.031002 -0.036071 2.052606
H 2.738925 -0.621615 1.906751
C 2.062976 0.693070 3.155255
H 1.372704 1.298392 3.304529
C 1.580077 1.182524 6.046148
H 0.893117 1.346276 5.442977
C 0.960271 0.002820 1.026683
C 3.142884 0.592592 4.161427
C 1.160680 -0.725224 -0.134080
H 1.941703 -1.219050 -0.239293
C -0.203793 0.722790 1.139872
H -0.354414 1.222279 1.910549
C 3.874819 0.579528 6.497387
C 4.422754 0.263873 3.783875
H 4.619380 0.168897 2.879118
C 5.178393 0.198447 6.054504
H 5.846636 0.038502 6.681225
C 1.338302 1.326212 7.365301
H 0.492425 1.579758 7.657391
C 5.451885 0.066522 4.744088
H 6.312154 -0.152565 4.463013
C 2.349466 1.096428 8.287910
H 2.177257 1.213374 9.195706
C 3.581091 0.703186 7.889087
H 4.236898 0.514729 8.519607
C -2.853904 -0.787954 -5.552748
C -2.031002 0.036071 -2.052606
H -2.738925 0.621615 -1.906751
C -2.062976 -0.693070 -3.155255
H -1.372704 -1.298392 -3.304529
C -1.580077 -1.182524 -6.046148
H -0.893117 -1.346276 -5.442977
C -0.960271 -0.002820 -1.026683
C -3.142884 -0.592592 -4.161427
C -1.160680 0.725224 0.134080
H -1.941703 1.219050 0.239293
C 0.203793 -0.722790 -1.139872
H 0.354414 -1.222279 -1.910549
C -3.874819 -0.579528 -6.497387
C -4.422754 -0.263873 -3.783875
H -4.619380 -0.168897 -2.879118
C -5.178393 -0.198447 -6.054504
H -5.846636 -0.038502 -6.681225
C -1.338302 -1.326212 -7.365301
H -0.492425 -1.579758 -7.657391
C -5.451885 -0.066522 -4.744088
H -6.312154 0.152565 -4.463013
C -2.349466 -1.096428 -8.287910
H -2.177257 -1.213374 -9.195706
C -3.581091 -0.703186 -7.889087
H -4.236898 -0.514729 -8.519607
C 2.962627 1.027640 43.535836
C 2.139725 0.203615 40.035694
H 2.847648 -0.381929 39.889839
C 2.171699 0.932756 41.138343
H 1.481427 1.538078 41.287617
C 1.688800 1.422210 44.029236
H 1.001840 1.585962 43.426065
C 1.068993 0.242507 39.009771
C 3.251607 0.832278 42.144515
C 1.269403 -0.485537 37.849008
H 2.050426 -0.979364 37.743795
C -0.095070 0.962477 39.122961
H -0.245691 1.461966 39.893637
C 3.983542 0.819214 44.480475
C 4.531477 0.503560 41.766963
H 4.728103 0.408584 40.862206
C 5.287116 0.438134 44.037592
H 5.955359 0.278189 44.664313
C 1.447025 1.565898 45.348389
H 0.601148 1.819444 45.640479
C 5.560608 0.306208 42.727176
H 6.420877 0.087121 42.446101
C 2.458188 1.336114 46.270998
H 2.285980 1.453060 47.178794
C 3.689814 0.942873 45.872176
H 4.345621 0.754416 46.502695
C -2.745181 -0.548267 32.430340
C -1.922279 0.275757 35.930482
H -2.630202 0.861302 36.076337
C -1.954253 -0.453383 34.827833
H -1.263981 -1.058705 34.678559
C -1.471354 -0.942837 31.936940
H -0.784394 -1.106589 32.540112
C -0.851548 0.236866 36.956405
C -3.034161 -0.352905 33.821661
C -1.051957 0.964910 38.117168
H -1.832980 1.458736 38.222382
C 0.312516 -0.483104 36.843216
H 0.463137 -0.982593 36.072539
C -3.766096 -0.339842 31.485701
C -4.314031 -0.024187 34.199213
H -4.510657 0.070789 35.103970
C -5.069670 0.041239 31.928584
H -5.737913 0.201184 31.301863
C -1.229579 -1.086525 30.617788
H -0.383702 -1.340071 30.325698
C -5.343162 0.173165 33.239000
H -6.203431 0.392252 33.520075
C -2.240743 -0.856741 29.695178
H -2.068534 -0.973688 28.787383
C -3.472368 -0.463500 30.094001
H -4.128175 -0.275043 29.463481
C 3.413315 8.104900 5.552748
C 2.590414 7.280876 2.052606
H 3.298337 6.695331 1.906751
C 2.622387 8.010016 3.155255
H 1.932116 8.615338 3.304529
C 2.139489 8.499470 6.046148
H 1.452528 8.663222 5.442977
C 1.519682 7.319767 1.026683
C 3.702295 7.909538 4.161427
C 1.720091 6.591723 -0.134080
H 2.501115 6.097897 -0.239293
C 0.355618 8.039737 1.139872
H 0.204998 8.539226 1.910549
C 4.434230 7.896474 6.497387
C 4.982165 7.580820 3.783875
H 5.178791 7.485844 2.879118
C 5.737804 7.515394 6.054504
H 6.406048 7.355449 6.681225
C 1.897713 8.643158 7.365301
H 1.051837 8.896704 7.657391
C 6.011296 7.383468 4.744088
H 6.871565 7.164381 4.463013
C 2.908877 8.413374 8.287910
H 2.736669 8.530320 9.195706
C 4.140502 8.020133 7.889087
H 4.796309 7.831676 8.519607
C -2.294492 6.528993 -5.552748
C -1.471591 7.353017 -2.052606
H -2.179514 7.938562 -1.906751
C -1.503564 6.623877 -3.155255
H -0.813293 6.018555 -3.304529
C -1.020666 6.134423 -6.046148
H -0.333705 5.970671 -5.442977
C -0.400859 7.314126 -1.026683
C -2.583472 6.724355 -4.161427
C -0.601268 8.042170 0.134080
H -1.382292 8.535996 0.239293
C 0.763205 6.594156 -1.139872
H 0.913825 6.094667 -1.910549
C -3.315407 6.737418 -6.497387
C -3.863342 7.053073 -3.783875
H -4.059968 7.148049 -2.879118
C -4.618981 7.118499 -6.054504
H -5.287225 7.278444 -6.681225
C -0.778890 5.990735 -7.365301
H 0.066987 5.737189 -7.657391
C -4.892473 7.250425 -4.744088
H -5.752742 7.469512 -4.463013
C -1.790054 6.220519 -8.287910
H -1.617845 6.103573 -9.195706
C -3.021679 6.613760 -7.889087
H -3.677486 6.802217 -8.519607
C 3.522038 8.344586 43.535836
C 2.699137 7.520562 40.035694
H 3.407060 6.935018 39.889839
C 2.731110 8.249703 41.138343
H 2.040839 8.855024 41.287617
C 2.248212 8.739157 44.029236
H 1.561251 8.902908 43.426065
C 1.628405 7.559453 39.009771
C 3.811018 8.149225 42.144515
C 1.828814 6.831409 37.849008
H 2.609838 6.337583 37.743795
C 0.464341 8.279423 39.122961
H 0.313721 8.778912 39.893637
C 4.542953 8.136161 44.480475
C 5.090888 7.820506 41.766963
H 5.287514 7.725530 40.862206
C 5.846527 7.755080 44.037592
H 6.514771 7.595135 44.664313
C 2.006436 8.882844 45.348389
H 1.160560 9.136391 45.640479
C 6.120019 7.623154 42.727176
H 6.980288 7.404067 42.446101
C 3.017600 8.653061 46.270998
H 2.845392 8.770007 47.178794
C 4.249225 8.259819 45.872176
H 4.905032 8.071362 46.502695
C -2.185769 6.768679 32.430340
C -1.362868 7.592704 35.930482
H -2.070791 8.178248 36.076337
C -1.394841 6.863563 34.827833
H -0.704570 6.258241 34.678559
C -0.911943 6.374109 31.936940
H -0.224982 6.210357 32.540112
C -0.292136 7.553813 36.956405
C -2.474749 6.964041 33.821661
C -0.492545 8.281857 38.117168
H -1.273569 8.775683 38.222382
C 0.871928 6.833842 36.843216
H 1.022548 6.334354 36.072539
C -3.206684 6.977105 31.485701
C -3.754619 7.292759 34.199213
H -3.951245 7.387736 35.103970
C -4.510258 7.358186 31.928584
H -5.178502 7.518130 31.301863
C -0.670167 6.230421 30.617788
H 0.175709 5.976875 30.325698
C -4.783750 7.490111 33.239000
H -5.644019 7.709198 33.520075
C -1.681331 6.460205 29.695178
H -1.509122 6.343259 28.787383
C -2.912956 6.853447 30.094001
H -3.568763 7.041904 29.463481
C 10.186304 0.787954 5.552748
C 9.363402 -0.036071 2.052606
H 10.071325 -0.621615 1.906751
C 9.395376 0.693070 3.155255
H 8.705104 1.298392 3.304529
C 8.912477 1.182524 6.046148
H 8.225517 1.346276 5.442977
C 8.292671 0.002820 1.026683
C 10.475284 0.592592 4.161427
C 8.493080 -0.725224 -0.134080
H 9.274103 -1.219050 -0.239293
C 7.128607 0.722790 1.139872
H 6.977986 1.222279 1.910549
C 11.207219 0.579528 6.497387
C 11.755154 0.263873 3.783875
H 11.951780 0.168897 2.879118
C 12.510793 0.198447 6.054504
H 13.179036 0.038502 6.681225
C 8.670702 1.326212 7.365301
H 7.824825 1.579758 7.657391
C 12.784285 0.066522 4.744088
H 13.644554 -0.152565 4.463013
C 9.681866 1.096428 8.287910
H 9.509657 1.213374 9.195706
C 10.913491 0.703186 7.889087
H 11.569298 0.514729 8.519607
C 4.478496 -0.787954 -5.552748
C 5.301398 0.036071 -2.052606
H 4.593475 0.621615 -1.906751
C 5.269424 -0.693070 -3.155255
H 5.959696 -1.298392 -3.304529
C 5.752323 -1.182524 -6.046148
H 6.439283 -1.346276 -5.442977
C 6.372129 -0.002820 -1.026683
C 4.189516 -0.592592 -4.161427
C 6.171720 0.725224 0.134080
H 5.390697 1.219050 0.239293
C 7.536193 -0.722790 -1.139872
H 7.686814 -1.222279 -1.910549
C 3.457581 -0.579528 -6.497387
C 2.909646 -0.263873 -3.783875
H 2.713020 -0.168897 -2.879118
C 2.154007 -0.198447 -6.054504
H 1.485764 -0.038502 -6.681225
C 5.994098 -1.326212 -7.365301
H 6.839975 -1.579758 -7.657391
C 1.880515 -0.066522 -4.744088
H 1.020246 0.152565 -4.463013
C 4.982934 -1.096428 -8.287910
H 5.155143 -1.213374 -9.195706
C 3.751309 -0.703186 -7.889087
H 3.095502 -0.514729 -8.519607
C 10.295027 1.027640 43.535836
C 9.472125 0.203615 40.035694
H 10.180048 -0.381929 39.889839
C 9.504099 0.932756 41.138343
H 8.813827 1.538078 41.287617
C 9.021200 1.422210 44.029236
H 8.334240 1.585962 43.426065
C 8.401393 0.242507 39.009771
C 10.584007 0.832278 42.144515
C 8.601803 -0.485537 37.849008
H 9.382826 -0.979364 37.743795
C 7.237330 0.962477 39.122961
H 7.086709 1.461966 39.893637
C 11.315942 0.819214 44.480475
C 11.863877 0.503560 41.766963
H 12.060503 0.408584 40.862206
C 12.619516 0.438134 44.037592
H 13.287759 0.278189 44.664313
C 8.779425 1.565898 45.348389
H 7.933548 1.819444 45.640479
C 12.893008 0.306208 42.727176
H 13.753277 0.087121 42.446101
C 9.790588 1.336114 46.270998
H 9.618380 1.453060 47.178794
C 11.022214 0.942873 45.872176
H 11.678021 0.754416 46.502695
C 4.587219 -0.548267 32.430340
C 5.410121 0.275757 35.930482
H 4.702198 0.861302 36.076337
C 5.378147 -0.453383 34.827833
H 6.068419 -1.058705 34.678559
C 5.861046 -0.942837 31.936940
H 6.548006 -1.106589 32.540112
C 6.480852 0.236866 36.956405
C 4.298239 -0.352905 33.821661
C 6.280443 0.964910 38.117168
H 5.499420 1.458736 38.222382
C 7.644916 -0.483104 36.843216
H 7.795537 -0.982593 36.072539
C 3.566304 -0.339842 31.485701
C 3.018369 -0.024187 34.199213
H 2.821743 0.070789 35.103970
C 2.262730 0.041239 31.928584
H 1.594487 0.201184 31.301863
C 6.102821 -1.086525 30.617788
H 6.948698 -1.340071 30.325698
C 1.989238 0.173165 33.239000
H 1.128969 0.392252 33.520075
C 5.091657 -0.856741 29.695178
H 5.263866 -0.973688 28.787383
C 3.860032 -0.463500 30.094001
H 3.204225 -0.275043 29.463481
C 10.745715 8.104900 5.552748
C 9.922814 7.280876 2.052606
H 10.630737 6.695331 1.906751
C 9.954787 8.010016 3.155255
H 9.264516 8.615338 3.304529
C 9.471889 8.499470 6.046148
H 8.784928 8.663222 5.442977
C 8.852082 7.319767 1.026683
C 11.034695 7.909538 4.161427
C 9.052491 6.591723 -0.134080
H 9.833515 6.097897 -0.239293
C 7.688018 8.039737 1.139872
H 7.537398 8.539226 1.910549
C 11.766630 7.896474 6.497387
C 12.314565 7.580820 3.783875
H 12.511191 7.485844 2.879118
C 13.070204 7.515394 6.054504
H 13.738448 7.355449 6.681225
C 9.230113 8.643158 7.365301
H 8.384237 8.896704 7.657391
C 13.343696 7.383468 4.744088
H 14.203965 7.164381 4.463013
C 10.241277 8.413374 8.287910
H 10.069069 8.530320 9.195706
C 11.472902 8.020133 7.889087
H 12.128709 7.831676 8.519607
C 5.037908 6.528993 -5.552748
C 5.860809 7.353017 -2.052606
H 5.152886 7.938562 -1.906751
C 5.828836 6.623877 -3.155255
H 6.519107 6.018555 -3.304529
C 6.311734 6.134423 -6.046148
H 6.998695 5.970671 -5.442977
C 6.931541 7.314126 -1.026683
C 4.748928 6.724355 -4.161427
C 6.731132 8.042170 0.134080
H 5.950108 8.535996 0.239293
C 8.095605 6.594156 -1.139872
H 8.246225 6.094667 -1.910549
C 4.016993 6.737418 -6.497387
C 3.469058 7.053073 -3.783875
H 3.272432 7.148049 -2.879118
C 2.713419 7.118499 -6.054504
H 2.045175 7.278444 -6.681225
C 6.553510 5.990735 -7.365301
H 7.399387 5.737189 -7.657391
C 2.439927 7.250425 -4.744088
H 1.579658 7.469512 -4.463013
C 5.542346 6.220519 -8.287910
H 5.714555 6.103573 -9.195706
C 4.310721 6.613760 -7.889087
H 3.654914 6.802217 -8.519607
C 10.854438 8.344586 43.535836
C 10.031537 7.520562 40.035694
H 10.739460 6.935018 39.889839
C 10.063510 8.249703 41.138343
H 9.373239 8.855024 41.287617
C 9.580612 8.739157 44.029236
H 8.893651 8.902908 43.426065
C 8.960805 7.559453 39.009771
C 11.143418 8.149225 42.144515
C 9.161214 6.831409 37.849008
H 9.942238 6.337583 37.743795
C 7.796741 8.279423 39.122961
H 7.646121 8.778912 39.893637
C 11.875353 8.136161 44.480475
C 12.423288 7.820506 41.766963
H 12.619914 7.725530 40.862206
C 13.178927 7.755080 44.037592
H 13.847171 7.595135 44.664313
C 9.338836 8.882844 45.348389
H 8.492960 9.136391 45.640479
C 13.452419 7.623154 42.727176
H 14.312688 7.404067 42.446101
C 10.350000 8.653061 46.270998
H 10.177792 8.770007 47.178794
C 11.581625 8.259819 45.872176
H 12.237432 8.071362 46.502695
C 5.146631 6.768679 32.430340
C 5.969532 7.592704 35.930482
H 5.261609 8.178248 36.076337
C 5.937559 6.863563 34.827833
H 6.627830 6.258241 34.678559
C 6.420457 6.374109 31.936940
H 7.107418 6.210357 32.540112
C 7.040264 7.553813 36.956405
C 4.857651 6.964041 33.821661
C 6.839855 8.281857 38.117168
H 6.058831 8.775683 38.222382
C 8.204328 6.833842 36.843216
H 8.354948 6.334354 36.072539
C 4.125716 6.977105 31.485701
C 3.577781 7.292759 34.199213
H 3.381155 7.387736 35.103970
C 2.822142 7.358186 31.928584
H 2.153898 7.518130 31.301863
C 6.662233 6.230421 30.617788
H 7.508109 5.976875 30.325698
C 2.548650 7.490111 33.239000
H 1.688381 7.709198 33.520075
C 5.651069 6.460205 29.695178
H 5.823278 6.343259 28.787383
C 4.419444 6.853447 30.094001
H 3.763637 7.041904 29.463481
C -0.039739 2.843356 17.970938
C -0.337771 0.655295 14.793653
C -0.390862 1.839178 16.997052
H -1.005122 1.199990 17.278507
C -0.877288 -0.097240 12.534799
C -0.366814 0.923069 13.398155
C 0.055933 1.709040 15.737913
H 0.668899 2.341516 15.436327
C 0.014557 2.140686 12.830687
H 0.343437 2.809320 13.389039
C -1.184462 -1.592224 14.369002
H -1.447240 -2.421344 14.699455
C -0.076778 2.387659 11.501279
H 0.217487 3.197635 11.151835
C -0.379001 2.679878 19.313261
H -0.855272 1.918993 19.557492
C -1.239564 -1.312964 13.054408
H -1.536419 -1.974422 12.473646
C 0.720989 3.988202 17.698600
H 1.010853 4.142964 16.830306
C -0.713234 -0.577021 15.235017
H -0.656754 -0.758582 16.146611
C -0.994499 0.225465 11.147657
H -1.344558 -0.412579 10.566895
C -0.623712 1.398194 10.655776
H -0.724851 1.570990 9.746460
C 0.707873 4.713277 20.012150
C 1.005906 6.901338 23.189435
C 1.058997 5.717454 20.986036
H 1.673257 6.356643 20.704581
C 1.545422 7.653872 25.448289
C 1.034949 6.633564 24.584934
C 0.612201 5.847593 22.245175
H -0.000764 5.215117 22.546761
C 0.653577 5.415946 25.152401
H 0.324697 4.747313 24.594050
C 1.852596 9.148857 23.614086
H 2.115374 9.977977 23.283633
C 0.744912 5.168974 26.481809
H 0.450647 4.358998 26.831253
C 1.047135 4.876755 18.669827
H 1.523407 5.637640 18.425596
C 1.907698 8.869597 24.928681
H 2.204554 9.531055 25.509442
C -0.052855 3.568430 20.284488
H -0.342718 3.413668 21.152782
C 1.381369 8.133654 22.748071
H 1.324889 8.315215 21.836477
C 1.662634 7.331168 26.835432
H 2.012692 7.969212 27.416193
C 1.291847 6.158439 27.327313
H 1.392986 5.985643 28.236628
C 7.292661 2.843356 17.970938
C 6.994629 0.655295 14.793653
C 6.941538 1.839178 16.997052
H 6.327278 1.199990 17.278507
C 6.455112 -0.097240 12.534799
C 6.965586 0.923069 13.398155
C 7.388333 1.709040 15.737913
H 8.001299 2.341516 15.436327
C 7.346957 2.140686 12.830687
H 7.675837 2.809320 13.389039
C 6.147938 -1.592224 14.369002
H 5.885160 -2.421344 14.699455
C 7.255622 2.387659 11.501279
H 7.549887 3.197635 11.151835
C 6.953399 2.679878 19.313261
H 6.477128 1.918993 19.557492
C 6.092836 -1.312964 13.054408
H 5.795981 -1.974422 12.473646
C 8.053389 3.988202 17.698600
H 8.343253 4.142964 16.830306
C 6.619166 -0.577021 15.235017
H 6.675646 -0.758582 16.146611
C 6.337901 0.225465 11.147657
H 5.987842 -0.412579 10.566895
C 6.708688 1.398194 10.655776
H 6.607549 1.570990 9.746460
C 8.040273 4.713277 20.012150
C 8.338306 6.901338 23.189435
C 8.391397 5.717454 20.986036
H 9.005657 6.356643 20.704581
C 8.877822 7.653872 25.448289
C 8.367349 6.633564 24.584934
C 7.944601 5.847593 22.245175
H 7.331636 5.215117 22.546761
C 7.985977 5.415946 25.152401
H 7.657097 4.747313 24.594050
C 9.184996 9.148857 23.614086
H 9.447774 9.977977 23.283633
C 8.077312 5.168974 26.481809
H 7.783047 4.358998 26.831253
C 8.379535 4.876755 18.669827
H 8.855807 5.637640 18.425596
C 9.240098 8.869597 24.928681
H 9.536954 9.531055 25.509442
C 7.279545 3.568430 20.284488
H 6.989682 3.413668 21.152782
C 8.713769 8.133654 22.748071
H 8.657289 8.315215 21.836477
C 8.995034 7.331168 26.835432
H 9.345092 7.969212 27.416193
C 8.624247 6.158439 27.327313
H 8.725386 5.985643 28.236628
C 3.650442 -0.822542 17.953846
C 2.892858 -2.970257 14.792894
C 2.890511 -3.724660 12.469848
C 2.756028 -2.684044 13.420565
C 3.613491 -1.878243 16.931721
H 4.151694 -2.621410 17.084793
C 2.479482 -1.404451 12.934381
H 2.358318 -0.706269 13.537173
C 3.012324 0.405988 17.840277
H 2.533778 0.605999 17.069600
C 2.879015 -1.887640 15.790329
H 2.327364 -1.156981 15.626242
C 3.134425 -4.281998 15.170445
H 3.218260 -4.479681 16.078241
C 3.166338 -5.022665 12.937040
H 3.290717 -5.707048 12.317915
C 4.358769 -1.098355 19.119167
H 4.790640 -1.916536 19.211846
C 2.837591 -3.444221 11.110053
H 2.976026 -4.127117 10.494727
C 3.255677 -5.304854 14.251255
H 3.397038 -6.178895 14.536128
C 2.381996 -1.151016 11.585602
H 2.179244 -0.293149 11.288574
C 2.585301 -2.174632 10.661853
H 2.549016 -1.997461 9.750259
C 3.790681 1.062229 20.029242
C 4.548265 3.209944 23.190195
C 4.550612 3.964346 25.513240
C 4.685095 2.923731 24.562524
C 3.827632 2.117929 21.051367
H 3.289429 2.861096 20.898295
C 4.961641 1.644138 25.048707
H 5.082805 0.945956 24.445916
C 4.428799 -0.166301 20.142811
H 4.907345 -0.366313 20.913488
C 4.562108 2.127327 22.192759
H 5.113759 1.396667 22.356846
C 4.306698 4.521685 22.812643
H 4.222863 4.719367 21.904847
C 4.274785 5.262351 25.046048
H 4.150406 5.946734 25.665173
C 3.082354 1.338041 18.863921
H 2.650483 2.156223 18.771242
C 4.603532 3.683907 26.873035
H 4.465097 4.366803 27.488361
C 4.185446 5.544541 23.731833
H 4.044085 6.418582 23.446960
C 5.059127 1.390702 26.397487
H 5.261879 0.532836 26.694514
C 4.855822 2.414319 27.321235
H 4.892106 2.237148 28.232829
C 4.209853 6.494404 17.953846
C 3.452270 4.346689 14.792894
C 3.449923 3.592287 12.469848
C 3.315439 4.632902 13.420565
C 4.172902 5.438704 16.931721
H 4.711106 4.695536 17.084793
C 3.038893 5.912495 12.934381
H 2.917729 6.610677 13.537173
C 3.571736 7.722934 17.840277
H 3.093189 7.922946 17.069600
C 3.438427 5.429306 15.790329
H 2.886776 6.159965 15.626242
C 3.693837 3.034948 15.170445
H 3.777671 2.837266 16.078241
C 3.725749 2.294282 12.937040
H 3.850129 1.609899 12.317915
C 4.918181 6.218592 19.119167
H 5.350052 5.400410 19.211846
C 3.397003 3.872725 11.110053
H 3.535437 3.189830 10.494727
C 3.815089 2.012092 14.251255
H 3.956449 1.138051 14.536128
C 2.941407 6.165930 11.585602
H 2.738655 7.023797 11.288574
C 3.144713 5.142314 10.661853
H 3.108428 5.319485 9.750259
C 4.350093 8.379175 20.029242
C 5.107676 10.526890 23.190195
C 5.110023 11.281293 25.513240
C 5.244507 10.240677 24.562524
C 4.387044 9.434875 21.051367
H 3.848840 10.178043 20.898295
C 5.521053 8.961084 25.048707
H 5.642217 8.262902 24.445916
C 4.988210 7.150645 20.142811
H 5.466757 6.950634 20.913488
C 5.121519 9.444273 22.192759
H 5.673170 8.713614 22.356846
C 4.866109 11.838631 22.812643
H 4.782275 12.036314 21.904847
C 4.834197 12.579298 25.046048
H 4.709817 13.263680 25.665173
C 3.641765 8.654988 18.863921
H 3.209895 9.473169 18.771242
C 5.162943 11.000854 26.873035
H 5.024509 11.683750 27.488361
C 4.744858 12.861487 23.731833
H 4.603497 13.735528 23.446960
C 5.618539 8.707649 26.397487
H 5.821291 7.849782 26.694514
C 5.415233 9.731265 27.321235
H 5.451518 9.554094 28.232829
