324
Lattice="10.211000 0.000000 0.000000 -2.925668 18.555773 0.000000 -3.391152 -6.495723 17.813768"
Co 0.286683 -3.513869 13.459014
N 1.975060 -3.595007 12.535548
N 0.931002 -5.071799 14.366804
N -1.326790 -3.553015 14.455872
N -0.194549 -1.910885 12.542674
N 3.920847 -4.977860 12.312876
N 2.860429 -6.490021 14.434496
N -0.923181 -5.495059 15.797249
N 1.820330 -1.573179 11.301054
N 1.674200 -1.868600 15.617330
N -1.013833 -5.185150 11.252957
C 2.419579 -2.745183 11.614576
C 3.672679 -3.014198 10.973281
C 4.229077 -2.118166 9.991742
C 5.455840 -2.456956 9.414576
C 6.165456 -3.521341 9.799354
C 5.657264 -4.411902 10.821864
C 4.374382 -4.118014 11.349151
C 2.751227 -4.705869 12.854415
C 2.197977 -5.509132 13.978463
C 2.328241 -7.195303 15.473039
C 3.064160 -8.268792 16.025265
C 2.442448 -8.960435 17.062027
C 1.186955 -8.672759 17.519840
C 0.459226 -7.599922 17.005023
C 1.043423 -6.856229 15.962917
C 0.340518 -5.765293 15.332310
C -1.652910 -4.520853 15.369719
C -3.071948 -4.408713 15.820407
C -3.447186 -2.968940 15.367937
C -2.368415 -2.693132 14.341864
C -2.375006 -1.595779 13.485022
C -1.331120 -1.235742 12.665589
C -1.335202 0.022304 11.815872
C 0.153391 0.137835 11.504131
C 0.689989 -1.265184 11.764212
C -3.213792 -4.598179 17.357735
C -3.867127 -5.494916 15.043727
C -3.245328 -1.913469 16.452796
C -4.873869 -2.765345 14.794334
C -2.026479 1.144797 12.391257
C -2.012096 -0.389915 10.483402
C 0.847927 1.013311 12.660245
C 0.629322 0.853520 10.294576
C 1.137999 -2.457042 14.813929
C -0.511555 -4.561827 12.113362
H 3.713495 -1.199730 9.712066
H 5.856031 -1.819048 8.621864
H 7.119827 -3.732659 9.325507
H 6.244337 -5.257606 11.187046
H 4.059652 -8.536991 15.656520
H 3.298314 -9.775994 17.542998
H 0.741725 -9.296842 18.300083
H -0.520689 -7.343879 17.396925
H -3.270310 -0.973232 13.467208
H -4.269107 -4.525551 17.626723
H -2.833991 -5.579612 17.632067
H -2.657629 -3.833903 17.902836
H -3.483874 -6.475143 15.319840
H -4.918697 -5.422938 15.314496
H -3.764589 -5.360499 13.967775
H -3.338292 -0.914490 16.023484
H -3.986067 -2.041000 17.240164
H -2.242522 -2.054705 16.855387
H -5.620492 -2.895288 15.578140
H -4.971696 -1.768778 14.361459
H -5.023375 -3.520605 14.015872
H -1.986722 1.981987 11.698301
H -3.059462 0.872385 12.583645
H -1.546717 1.431513 13.330042
H -3.050087 -0.659265 10.677572
H -1.977640 0.452193 9.792228
H -1.492410 -1.238348 10.046965
H 1.927733 0.975278 12.571176
H 0.502373 2.038705 12.631743
H 0.487704 0.479681 13.538463
H 0.288143 1.888099 10.271418
H 1.714524 0.824672 10.210852
H 0.155075 0.260531 9.503645
Co 3.607498 15.573918 4.354754
N 1.919120 15.655056 5.278219
N 2.963178 17.131848 3.446964
N 5.220970 15.613064 3.357895
N 4.088729 13.970935 5.271094
N -0.026667 17.037910 5.500891
N 1.033751 18.550070 3.379272
N 4.817361 17.555109 2.016518
N 2.073850 13.633229 6.512713
N 2.219980 13.928650 2.196438
N 4.908013 17.245199 6.560811
C 1.474601 14.805232 6.199191
C 0.221501 15.074248 6.840487
C -0.334897 14.178216 7.822025
C -1.561660 14.517006 8.399191
C -2.271276 15.581391 8.014414
C -1.763084 16.471951 6.991904
C -0.480202 16.178063 6.464616
C 1.142953 16.765919 4.959353
C 1.696203 17.569182 3.835304
C 1.565939 19.255353 2.340729
C 0.830020 20.328841 1.788502
C 1.451732 21.020485 0.751741
C 2.707225 20.732809 0.293927
C 3.434954 19.659972 0.808745
C 2.850757 18.916279 1.850850
C 3.553662 17.825343 2.481458
C 5.547090 16.580902 2.444049
C 6.966128 16.468763 1.993361
C 7.341366 15.028990 2.445830
C 6.262595 14.753182 3.471903
C 6.269186 13.655829 4.328746
C 5.225301 13.295791 5.148179
C 5.229382 12.037745 5.997896
C 3.740789 11.922215 6.309636
C 3.204191 13.325234 6.049555
C 7.107972 16.658228 0.456032
C 7.761308 17.554965 2.770041
C 7.139508 13.973518 1.360972
C 8.768049 14.825395 3.019434
C 5.920659 10.915253 5.422511
C 5.906276 12.449965 7.330365
C 3.046254 11.046739 5.153523
C 3.264859 11.206530 7.519191
C 2.756182 14.517092 2.999838
C 4.405735 16.621876 5.700406
H 0.180686 13.259779 8.101702
H -1.961851 13.879097 9.191904
H -3.225647 15.792709 8.488260
H -2.350157 17.317655 6.626722
H -0.165472 20.597040 2.157247
H 0.595866 21.836044 0.270769
H 3.152455 21.356892 -0.486316
H 4.414869 19.403929 0.416842
H 7.164490 13.033281 4.346559
H 8.163287 16.585601 0.187045
H 6.728171 17.639662 0.181700
H 6.551809 15.893953 -0.089069
H 7.378054 18.535193 2.493927
H 8.812878 17.482987 2.499272
H 7.658769 17.420549 3.845992
H 7.232472 12.974539 1.790284
H 7.880247 14.101049 0.573603
H 6.136702 14.114755 0.958381
H 9.514672 14.955338 2.235628
H 8.865876 13.828828 3.452308
H 8.917555 15.580655 3.797895
H 5.880902 10.078062 6.115466
H 6.953642 11.187664 5.230122
H 5.440897 10.628537 4.483725
H 6.944267 12.719315 7.136195
H 5.871820 11.607857 8.021540
H 5.386590 13.298398 7.766803
H 1.966447 11.084772 5.242592
H 3.391807 10.021345 5.182025
H 3.406476 11.580369 4.275304
H 3.606037 10.171951 7.542349
H 2.179656 11.235378 7.602916
H 3.739105 11.799519 8.310123
Co 2.930406 6.087808 4.083094
N 4.575206 5.132551 3.760486
N 3.665423 7.379438 2.850203
N 1.349934 7.106293 4.291337
N 2.369324 4.751125 5.310284
N 6.596820 5.354194 2.470770
N 5.696733 7.852038 1.711903
N 1.842677 8.908346 2.784292
N 4.228645 3.231420 5.132146
N 4.062565 7.803390 6.313199
N 1.568116 4.473949 1.872227
C 4.987074 3.963688 4.284211
C 6.252203 3.464375 3.938624
C 6.809203 2.268046 4.512227
C 8.042308 1.840735 4.081134
C 8.767634 2.541929 3.135223
C 8.303554 3.701328 2.622187
C 7.026369 4.167885 3.037247
C 5.401586 5.768332 2.876923
C 4.942715 7.093708 2.422672
C 5.201650 9.073309 1.375223
C 6.003233 9.956337 0.607449
C 5.546800 11.186979 0.265425
C 4.271916 11.562801 0.634170
C 3.433431 10.760492 1.384130
C 3.916172 9.455068 1.758219
C 3.115985 8.540777 2.474332
C 1.053174 8.222286 3.571660
C -0.407338 8.604618 3.708826
C -0.708261 7.927891 5.060891
C 0.317649 6.828641 5.139272
C 0.283509 5.732312 5.937329
C 1.230123 4.774548 6.060244
C 1.197033 3.619941 7.043564
C 2.178374 2.637367 6.354171
C 3.061406 3.577920 5.550770
C -0.695372 10.084170 3.600162
C -1.118005 7.881858 2.520648
C -0.428831 8.849847 6.247288
C -2.178013 7.386891 5.155304
C -0.214494 3.070583 7.262673
C 1.741835 4.184691 8.354657
C 1.485845 1.777005 5.324535
C 3.003543 1.748390 7.285831
C 3.684877 7.095078 5.502673
C 2.082798 5.075475 2.634656
H 6.272459 1.724311 5.260406
H 8.458093 0.918671 4.497976
H 9.723221 2.156456 2.787855
H 8.896853 4.273544 1.907855
H 6.998974 9.635807 0.295709
H 6.188123 11.862448 -0.304615
H 3.920010 12.541639 0.331336
H 2.447206 11.098558 1.683401
H -0.579846 5.618429 6.580406
H -0.328851 10.468803 2.647126
H -1.772817 10.250054 3.664292
H -0.196957 10.599315 4.421377
H -2.185276 8.050431 2.607936
H -0.741018 8.267324 1.590769
H -0.893128 6.820554 2.622187
H -1.123772 9.690612 6.200973
H -0.555391 8.307492 7.164697
H 0.593857 9.232194 6.170689
H -2.304417 6.833216 6.083402
H -2.873090 8.218192 5.119677
H -2.374758 6.713837 4.309150
H -0.188460 2.284510 8.003726
H -0.859568 3.884787 7.604697
H -0.605425 2.679398 6.320325
H 1.099247 4.978577 8.691337
H 1.769723 3.379506 9.092147
H 2.752711 4.554426 8.185426
H 2.249600 1.238556 4.740244
H 0.838753 1.068977 5.810851
H 0.919021 2.418988 4.652956
H 2.333991 1.038413 7.777491
H 3.744884 1.210497 6.705102
H 3.488740 2.374318 8.032228
Co 0.963774 5.972241 13.730674
N -0.681026 6.927498 14.053281
N 0.228757 4.680611 14.963565
N 2.544246 4.953757 13.522431
N 1.524856 7.308924 12.503483
N -2.702640 6.705855 15.342998
N -1.802553 4.208012 16.101865
N 2.051503 3.151704 15.029476
N -0.334465 8.828630 12.681621
N -0.168384 4.256660 11.500568
N 2.326064 7.586101 15.941541
C -1.092894 8.096362 13.529556
C -2.358023 8.595674 13.875144
C -2.915023 9.792004 13.301540
C -4.148128 10.219314 13.732633
C -4.873453 9.518120 14.678545
C -4.409374 8.358721 15.191581
C -3.132189 7.892164 14.776520
C -1.507405 6.291718 14.936844
C -1.048535 4.966341 15.391095
C -1.307470 2.986741 16.438545
C -2.109053 2.103713 17.206318
C -1.652620 0.873071 17.548342
C -0.377736 0.497248 17.179597
C 0.460750 1.299558 16.429638
C -0.021991 2.604982 16.055549
C 0.778195 3.519273 15.339435
C 2.841007 3.837764 14.242107
C 4.301518 3.455432 14.104941
C 4.602441 4.132159 12.752876
C 3.576531 5.231408 12.674496
C 3.610671 6.327737 11.876439
C 2.664057 7.285502 11.753524
C 2.697147 8.440108 10.770204
C 1.715806 9.422683 11.459597
C 0.832774 8.482129 12.262998
C 4.589552 1.975880 14.213605
C 5.012185 4.178192 15.293119
C 4.323011 3.210203 11.566479
C 6.072193 4.673159 12.658463
C 4.108674 8.989467 10.551095
C 2.152345 7.875359 9.459111
C 2.408335 10.283044 12.489232
C 0.890637 10.311660 10.527937
C 0.209303 4.964972 12.311095
C 1.811382 6.984574 15.179111
H -2.378279 10.335738 12.553362
H -4.563913 11.141379 13.315791
H -5.829041 9.903593 15.025913
H -5.002673 7.786506 15.905913
H -3.104794 2.424243 17.518059
H -2.293943 0.197602 18.118383
H -0.025830 -0.481589 17.482432
H 1.446975 0.961492 16.130367
H 4.474026 6.441620 11.233362
H 4.223031 1.591247 15.166642
H 5.666997 1.809995 14.149476
H 4.091137 1.460734 13.392390
H 6.079457 4.009618 15.205832
H 4.635198 3.792725 16.222998
H 4.787309 5.239496 15.191581
H 5.017952 2.369438 11.612795
H 4.449571 3.752557 10.649070
H 3.300323 2.827856 11.643079
H 6.198597 5.226833 11.730366
H 6.767270 3.841858 12.694091
H 6.268938 5.346213 13.504617
H 4.082640 9.775539 9.810042
H 4.753748 8.175263 10.209070
H 4.499605 9.380652 11.493443
H 2.794933 7.081473 9.122430
H 2.124457 8.680544 8.721621
H 1.141469 7.505624 9.628341
H 1.644581 10.821493 13.073524
H 3.055427 10.991073 12.002917
H 2.975159 9.641062 13.160812
H 1.560189 11.021637 10.036277
H 0.149296 10.849553 11.108665
H 0.405440 9.685731 9.781540
O 0.011540 12.362276 0.650203
O 3.882640 -0.302226 17.163565
O 6.410812 3.851346 8.210365
C 6.303559 6.613271 8.340406
C 6.037302 5.047195 7.877248
O -2.516632 8.208704 9.603402
C -2.409378 5.446779 9.473362
C -2.143122 7.012855 9.936520
