128
Lattice="9.969000 0.000000 0.000000 -0.089020 10.000604 0.000000 -1.587132 -4.718453 12.094522"
O 6.477585 -0.505411 2.818145
O 8.129294 2.454194 3.186181
O 5.184114 4.140997 2.958804
O 3.502703 1.135260 3.147357
C 4.123227 -1.213575 2.810767
C 4.302746 -2.206748 1.647274
H 3.456878 -2.297083 1.161074
H 4.570996 -3.080571 2.000434
H 4.994986 -1.873932 1.037710
C 3.082979 -1.777084 3.798889
H 2.229360 -1.904386 3.335669
H 2.962553 -1.147269 4.540283
H 3.396458 -2.637491 4.148421
C 5.418858 -1.032711 3.534019
C 5.826878 -1.263773 4.797897
H 5.299619 -1.623393 5.501798
C 7.188219 -0.872192 4.886187
H 7.738524 -0.921686 5.659027
C 7.555082 -0.416461 3.671897
C 8.840216 0.105155 3.096198
C 9.396464 -0.892389 2.066954
H 9.588669 -1.745125 2.509613
H 10.220318 -0.533442 1.677510
H 8.733394 -1.034385 1.359424
C 9.854554 0.260072 4.229454
H 10.001008 -0.609003 4.657600
H 9.511552 0.896027 4.891025
H 10.702152 0.591109 3.865409
C 8.624277 1.422170 2.406810
C 8.827340 1.865112 1.158655
H 9.167189 1.358115 0.430565
C 8.438006 3.240878 1.123581
H 8.460762 3.817326 0.368883
C 8.032246 3.561398 2.368107
C 7.537867 4.827411 3.009117
C 7.338598 5.886526 1.916982
H 8.180340 6.017732 1.431991
H 7.062343 6.732159 2.328195
H 6.645770 5.584965 1.292904
C 8.582255 5.338362 4.014172
H 9.414534 5.547384 3.542485
H 8.752868 4.647519 4.687837
H 8.243606 6.146670 4.454412
C 6.248403 4.573080 3.725113
C 5.856127 4.660544 5.010760
H 6.392942 4.938640 5.743688
C 4.496275 4.259514 5.074861
H 3.955954 4.214189 5.854958
C 4.114957 3.954544 3.810984
C 2.830468 3.503446 3.185697
C 2.322225 4.565287 2.189108
H 2.169262 5.409858 2.662004
H 1.482985 4.259384 1.786361
H 2.991883 4.700421 1.486417
C 1.785695 3.316251 4.293555
H 1.659296 4.163878 4.768870
H 2.095864 2.631865 4.922470
H 0.935620 3.034461 3.895645
C 3.046646 2.226029 2.420114
C 2.906881 1.880549 1.134466
H 2.602922 2.442181 0.430565
C 3.301953 0.504704 1.015940
H 3.319060 -0.013871 0.220120
C 3.644862 0.094426 2.249581
O 1.815263 5.787562 9.276377
O 0.163555 2.827957 8.908341
O 3.108735 1.141154 9.135718
O 4.790145 4.146891 8.947164
C 4.169622 6.495727 9.283755
C 3.990102 7.488899 10.447248
H 4.835971 7.579234 10.933448
H 3.721853 8.362722 10.094088
H 3.297863 7.156083 11.056812
C 5.209870 7.059235 8.295633
H 6.063489 7.186537 8.758853
H 5.330295 6.429421 7.554238
H 4.896390 7.919642 7.946101
C 2.873991 6.314862 8.560503
C 2.465970 6.545925 7.296625
H 2.993230 6.905544 6.592724
C 1.104630 6.154344 7.208335
H 0.554324 6.203837 6.435495
C 0.737766 5.698612 8.422625
C -0.547368 5.176996 8.998324
C -1.103615 6.174540 10.027568
H -1.295820 7.027276 9.584909
H -1.927470 5.815593 10.417012
H -0.440546 6.316536 10.735098
C -1.561706 5.022079 7.865068
H -1.708160 5.891154 7.436921
H -1.218703 4.386124 7.203497
H -2.409304 4.691042 8.229113
C -0.331429 3.859981 9.687712
C -0.534491 3.417039 10.935867
H -0.874340 3.924036 11.663957
C -0.145157 2.041273 10.970941
H -0.167913 1.464825 11.725639
C 0.260602 1.720753 9.726414
C 0.754982 0.454740 9.085405
C 0.954251 -0.604375 10.177540
H 0.112509 -0.735581 10.662530
H 1.230505 -1.450008 9.766326
H 1.647079 -0.302814 10.801617
C -0.289406 -0.056211 8.080350
H -1.121686 -0.265232 8.552036
H -0.460020 0.634632 7.406685
H 0.049243 -0.864519 7.640109
C 2.044446 0.709071 8.369409
C 2.436722 0.621607 7.083761
H 1.899907 0.343511 6.350833
C 3.796574 1.022637 7.019660
H 4.336895 1.067962 6.239564
C 4.177891 1.327607 8.283538
C 5.462381 1.778705 8.908825
C 5.970624 0.716864 9.905413
H 6.123587 -0.127707 9.432518
H 6.809864 1.022767 10.308161
H 5.300966 0.581730 10.608105
C 6.507153 1.965900 7.800967
H 6.633553 1.118273 7.325652
H 6.196985 2.650286 7.172051
H 7.357229 2.247690 8.198876
C 5.246202 3.056122 9.674408
C 5.385967 3.401602 10.960056
H 5.689927 2.839970 11.663957
C 4.990896 4.777447 11.078582
H 4.973788 5.296023 11.874402
C 4.647987 5.187725 9.844941
