312
Lattice="11.847000 0.000000 0.000000 0.000000 14.654000 0.000000 0.000000 0.000000 15.841000"
O 3.806441 8.374761 -3.294928
O 6.050263 8.103662 -4.806159
O 8.353320 6.106322 -3.551552
O 7.195868 4.640922 -4.711113
O 3.509081 3.875983 5.206937
O 4.634546 2.070610 4.649333
C 5.057484 8.068492 -1.167482
C 5.072885 8.475874 -2.634358
C 6.101205 7.724123 -3.439081
C 5.957856 6.151749 -3.293344
C 6.013537 5.830827 -1.763103
C 6.082250 4.318534 -1.441531
C 6.539544 4.133893 -0.009505
C 5.692483 4.851939 1.050258
C 5.415264 6.317339 0.598790
C 4.965078 6.544476 -0.893432
C 4.542140 7.032455 1.617366
C 4.835945 6.685155 3.033551
C 5.641541 5.720922 3.445418
C 6.469647 4.913486 2.426841
C 6.771745 3.478860 2.940090
C 7.044226 3.373351 4.454489
C 5.905729 3.996146 5.275053
C 5.802661 5.489388 4.945560
C 6.953004 6.299755 5.544350
C 7.071474 6.170799 7.068254
C 7.262211 4.673161 7.362897
C 6.169918 3.801248 6.814798
C 7.261026 5.625671 -3.887381
C 4.786188 5.552401 -4.074305
C 3.503158 6.066756 -1.150057
C 4.359696 4.087001 1.245103
C 7.855746 5.632998 2.301697
C 4.615591 3.285427 5.032686
C 5.893883 6.754029 7.803277
C 8.326072 6.900569 7.535564
H 5.968519 8.431912 -0.716013
H 4.209239 8.544747 -0.698588
H 5.334704 9.522169 -2.591588
H 7.066736 7.998153 -3.041472
H 6.962482 6.260189 -1.476381
H 6.781223 3.837883 -2.110021
H 5.103688 3.878914 -1.568259
H 6.520589 3.075875 0.210685
H 7.553647 4.498778 0.068116
H 6.389087 6.781871 0.584533
H 3.511451 6.781871 1.414601
H 4.685489 8.094870 1.495390
H 4.343110 7.274246 3.795504
H 7.642500 3.111044 2.415752
H 5.922315 2.853134 2.707227
H 7.962369 3.893568 4.682600
H 7.142556 2.332917 4.723786
H 4.907027 5.860135 5.420790
H 7.877070 5.959782 5.100802
H 6.800178 7.340189 5.303567
H 7.301306 4.541275 8.435332
H 8.198124 4.356634 6.927269
H 6.436475 2.768141 6.987465
H 5.257699 4.029850 7.345472
H 3.846721 5.986159 -3.763822
H 4.756571 4.484124 -3.925400
H 4.953231 5.766349 -5.119811
H 3.485387 5.010203 -1.373415
H 3.203429 6.625073 -2.024480
H 2.819586 6.273377 -0.340581
H 3.631106 4.601356 1.854981
H 4.494752 3.083202 1.615782
H 4.011394 4.048900 0.223358
H 8.392415 5.266648 1.438363
H 8.435064 5.441030 3.193546
H 7.693442 6.695413 2.200315
H 5.017205 6.144422 7.644867
H 5.736317 7.731450 7.372401
H 6.076326 6.853676 8.863039
H 9.179056 6.437502 7.061918
H 8.373460 6.739375 8.601663
H 8.331995 7.961518 7.331215
O -2.117059 -1.047761 19.135928
O 0.126763 -0.776662 20.647159
O 2.429820 1.220678 19.392552
O 1.272368 2.686078 20.552113
O -2.414419 3.451017 10.634063
O -1.288954 5.256390 11.191667
C -0.866016 -0.741492 17.008482
C -0.850615 -1.148874 18.475358
C 0.177705 -0.397123 19.280081
C 0.034356 1.175251 19.134344
C 0.090037 1.496173 17.604103
C 0.158750 3.008466 17.282531
C 0.616044 3.193107 15.850505
C -0.231016 2.475061 14.790742
C -0.508236 1.009661 15.242210
C -0.958422 0.782524 16.734432
C -1.381360 0.294545 14.223634
C -1.087555 0.641845 12.807448
C -0.281959 1.606078 12.395582
C 0.546147 2.413514 13.414159
C 0.848245 3.848140 12.900910
C 1.120726 3.953649 11.386511
C -0.017770 3.330854 10.565947
C -0.120839 1.837612 10.895440
C 1.029504 1.027245 10.296650
C 1.147974 1.156201 8.772746
C 1.338711 2.653839 8.478103
C 0.246418 3.525752 9.026202
C 1.337526 1.701329 19.728381
C -1.137312 1.774599 19.915305
C -2.420342 1.260244 16.991057
C -1.563804 3.239999 14.595897
C 1.932246 1.694002 13.539303
C -1.307909 4.041573 10.808314
C -0.029617 0.572971 8.037723
C 2.402572 0.426431 8.305436
H 0.045019 -1.104912 16.557013
H -1.714261 -1.217747 16.539588
H -0.588796 -2.195169 18.432588
H 1.143236 -0.671153 18.882472
H 1.038982 1.066811 17.317381
H 0.857723 3.489117 17.951021
H -0.819812 3.448086 17.409259
H 0.597089 4.251125 15.630315
H 1.630147 2.828222 15.772884
H 0.465587 0.545129 15.256467
H -2.412049 0.545129 14.426399
H -1.238011 -0.767870 14.345610
H -1.580390 0.052754 12.045496
H 1.719000 4.215956 13.425247
H -0.001185 4.473866 13.133773
H 2.038869 3.433432 11.158400
H 1.219056 4.994083 11.117214
H -1.016473 1.466865 10.420210
H 1.953570 1.367218 10.740198
H 0.876678 -0.013189 10.537433
H 1.377806 2.785725 7.405667
H 2.274624 2.970366 8.913731
H 0.512975 4.558859 8.853535
H -0.665801 3.297150 8.495528
H -2.076779 1.340841 19.604822
H -1.166929 2.842876 19.766400
H -0.970269 1.560651 20.960811
H -2.438113 2.316797 17.214415
H -2.720071 0.701927 17.865480
H -3.103914 1.053623 16.181582
H -2.292394 2.725644 13.986019
H -1.428748 4.243798 14.225218
H -1.912106 3.278100 15.617642
H 2.468915 2.060352 14.402637
H 2.511564 1.885970 12.647454
H 1.769942 0.631587 13.640685
H -0.906295 1.182578 8.196133
H -0.187183 -0.404450 8.468599
H 0.152826 0.473324 6.977961
H 3.255556 0.889498 8.779082
H 2.449960 0.587625 7.239337
H 2.408495 -0.634518 8.509785
O 8.040559 15.701761 11.215428
O 5.796737 15.430662 12.726659
O 3.493680 13.433322 11.472052
O 4.651132 11.967922 12.631613
O 8.337919 11.202983 2.713563
O 7.212454 9.397610 3.271166
C 6.789516 15.395492 9.087982
C 6.774115 15.802874 10.554858
C 5.745795 15.051123 11.359581
C 5.889144 13.478749 11.213844
C 5.833463 13.157827 9.683603
C 5.764750 11.645534 9.362031
C 5.307456 11.460893 7.930005
C 6.154517 12.178939 6.870242
C 6.431736 13.644339 7.321710
C 6.881922 13.871476 8.813932
C 7.304860 14.359455 6.303134
C 7.011055 14.012155 4.886948
C 6.205459 13.047922 4.475082
C 5.377353 12.240486 5.493659
C 5.075255 10.805860 4.980410
C 4.802774 10.700351 3.466011
C 5.941270 11.323146 2.645447
C 6.044339 12.816388 2.974940
C 4.893996 13.626755 2.376150
C 4.775526 13.497799 0.852246
C 4.584789 12.000161 0.557603
C 5.677082 11.128248 1.105702
C 4.585974 12.952671 11.807881
C 7.060812 12.879401 11.994805
C 8.343842 13.393756 9.070557
C 7.487304 11.414001 6.675397
C 3.991254 12.959998 5.618803
C 7.231409 10.612427 2.887814
C 5.953118 14.081029 0.117223
C 3.520928 14.227569 0.384936
H 5.878481 15.758912 8.636513
H 7.637761 15.871747 8.619088
H 6.512296 16.849169 10.512088
H 4.780265 15.325153 10.961972
H 4.884518 13.587189 9.396881
H 5.065777 11.164883 10.030521
H 6.743312 11.205914 9.488759
H 5.326411 10.402875 7.709815
H 4.293353 11.825778 7.852384
H 5.457913 14.108871 7.335967
H 8.335549 14.108871 6.505899
H 7.161512 15.421870 6.425110
H 7.503890 14.601246 4.124996
H 4.204500 10.438044 5.504747
H 5.924685 10.180134 5.213273
H 3.884631 11.220568 3.237900
H 4.704444 9.659917 3.196714
H 6.939973 13.187135 2.499710
H 3.969930 13.286782 2.819698
H 5.046822 14.667189 2.616933
H 4.545694 11.868275 -0.514833
H 3.648876 11.683634 0.993231
H 5.410525 10.095141 0.933035
H 6.589301 11.356850 0.575028
H 8.000279 13.313159 11.684322
H 7.090430 11.811124 11.845900
H 6.893769 13.093349 13.040311
H 8.361613 12.337203 9.293915
H 8.643571 13.952073 9.944980
H 9.027414 13.600377 8.261081
H 8.215894 11.928356 6.065519
H 7.352248 10.410202 6.304718
H 7.835606 11.375900 7.697142
H 3.454585 12.593648 6.482137
H 3.411936 12.768030 4.726954
H 4.153558 14.022413 5.720185
H 6.829796 13.471422 0.275633
H 6.110683 15.058450 0.548099
H 5.770674 14.180676 -0.942539
H 2.667944 13.764502 0.858582
H 3.473540 14.066375 -0.681163
H 3.515005 15.288518 0.589285
O 13.964059 6.279239 4.625572
O 11.720237 6.550338 3.114341
O 9.417180 8.547678 4.368948
O 10.574632 10.013078 3.209387
O 14.261419 10.778017 13.127437
O 13.135954 12.583390 12.569833
C 12.713016 6.585508 6.753018
C 12.697615 6.178126 5.286142
C 11.669295 6.929877 4.481419
C 11.812644 8.502251 4.627156
C 11.756963 8.823173 6.157397
C 11.688250 10.335466 6.478969
C 11.230956 10.520107 7.910995
C 12.078017 9.802061 8.970758
C 12.355236 8.336661 8.519290
C 12.805422 8.109524 7.027068
C 13.228360 7.621545 9.537866
C 12.934555 7.968845 10.954052
C 12.128959 8.933078 11.365918
C 11.300853 9.740514 10.347341
C 10.998755 11.175140 10.860590
C 10.726274 11.280649 12.374989
C 11.864771 10.657854 13.195553
C 11.967839 9.164612 12.866060
C 10.817496 8.354245 13.464850
C 10.699026 8.483201 14.988754
C 10.508289 9.980839 15.283397
C 11.600582 10.852752 14.735298
C 10.509474 9.028329 4.033119
C 12.984312 9.101599 3.846195
C 14.267342 8.587244 6.770443
C 13.410804 10.566999 9.165603
C 9.914754 9.021002 10.222197
C 13.154909 11.368573 12.953186
C 11.876618 7.899971 15.723777
C 9.444428 7.753431 15.456064
H 11.801981 6.222088 7.204487
H 13.561261 6.109253 7.221912
H 12.435796 5.131831 5.328912
H 10.703764 6.655847 4.879028
H 10.808018 8.393811 6.444119
H 10.989277 10.816117 5.810479
H 12.666812 10.775086 6.352241
H 11.249911 11.578125 8.131185
H 10.216853 10.155222 7.988616
H 11.381413 7.872129 8.505033
H 14.259049 7.872129 9.335101
H 13.085012 6.559130 9.415890
H 13.427390 7.379754 11.716004
H 10.128000 11.542956 10.336252
H 11.848185 11.800866 10.627727
H 9.808131 10.760432 12.603100
H 10.627944 12.321083 12.644286
H 12.863473 8.793865 13.341290
H 9.893430 8.694218 13.021302
H 10.970322 7.313811 13.224067
H 10.469194 10.112725 16.355832
H 9.572376 10.297366 14.847769
H 11.334025 11.885859 14.907965
H 12.512801 10.624150 15.265972
H 13.923779 8.667841 4.156678
H 13.013929 10.169876 3.995100
H 12.817269 8.887651 2.800689
H 14.285113 9.643797 6.547085
H 14.567071 8.028927 5.896020
H 14.950914 8.380623 7.579918
H 14.139394 10.052644 9.775481
H 13.275748 11.570798 9.536282
H 13.759106 10.605100 8.143858
H 9.378085 9.387352 9.358863
H 9.335436 9.212970 11.114046
H 10.077058 7.958587 10.120815
H 12.753296 8.509578 15.565367
H 12.034183 6.922550 15.292901
H 11.694174 7.800324 16.783539
H 8.591444 8.216498 14.982418
H 9.397040 7.914625 16.522163
H 9.438505 6.692482 15.251715
