380
Lattice="11.614500 0.000000 0.000000 0.000000 5.426000 0.000000 -0.149782 0.000000 11.351012"
C 3.639765 1.831275 -2.826402
H 4.042368 2.399377 -3.472275
C 2.285224 1.999481 -2.496315
H 1.784078 2.691839 -2.911535
C 1.667682 1.169303 -1.572229
C 0.288130 1.351074 -1.212742
H -0.194701 2.062965 -1.616384
C 0.360364 -0.549654 0.319417
C 4.381285 0.853510 -2.222869
H 5.301717 0.760725 -2.441603
C 3.793701 -0.027673 -1.271767
C 2.413465 0.124798 -0.948491
C 1.789916 -0.746618 -0.009194
C 2.566618 -1.739576 0.577426
H 2.167664 -2.334265 1.202072
C 3.925680 -1.880652 0.265614
H 4.433529 -2.565955 0.683331
C 4.531890 -1.042335 -0.635884
H 5.455842 -1.147056 -0.830894
C -3.639765 -1.831275 2.826402
H -4.042368 -2.399377 3.472275
C -2.285224 -1.999481 2.496315
H -1.784078 -2.691839 2.911535
C -1.667682 -1.169303 1.572229
C -0.288130 -1.351074 1.212742
H 0.194701 -2.062965 1.616384
C -0.360364 0.549654 -0.319417
C -4.381285 -0.853510 2.222869
H -5.301717 -0.760725 2.441603
C -3.793701 0.027673 1.271767
C -2.413465 -0.124798 0.948491
C -1.789916 0.746618 0.009194
C -2.566618 1.739576 -0.577426
H -2.167664 2.334265 -1.202072
C -3.925680 1.880652 -0.265614
H -4.433529 2.565955 -0.683331
C -4.531890 1.042335 0.635884
H -5.455842 1.147056 0.830894
C 3.489983 1.831275 8.524610
H 3.892586 2.399377 7.878737
C 2.135442 1.999481 8.854697
H 1.634297 2.691839 8.439477
C 1.517901 1.169303 9.778783
C 0.138349 1.351074 10.138270
H -0.344483 2.062965 9.734628
C 0.210583 -0.549654 11.670429
C 4.231503 0.853510 9.128143
H 5.151935 0.760725 8.909409
C 3.643919 -0.027673 10.079244
C 2.263683 0.124798 10.402521
C 1.640134 -0.746618 11.341818
C 2.416837 -1.739576 11.928438
H 2.017882 -2.334265 12.553084
C 3.775899 -1.880652 11.616626
H 4.283748 -2.565955 12.034343
C 4.382108 -1.042335 10.715128
H 5.306060 -1.147056 10.520118
C -3.789547 -1.831275 14.177414
H -4.192149 -2.399377 14.823286
C -2.435006 -1.999481 13.847326
H -1.933860 -2.691839 14.262546
C -1.817464 -1.169303 12.923240
C -0.437912 -1.351074 12.563754
H 0.044919 -2.062965 12.967396
C -0.510146 0.549654 11.031594
C -4.531067 -0.853510 13.573880
H -5.451498 -0.760725 13.792614
C -3.943483 0.027673 12.622779
C -2.563247 -0.124798 12.299502
C -1.939698 0.746618 11.360206
C -2.716400 1.739576 10.773586
H -2.317446 2.334265 10.148940
C -4.075462 1.880652 11.085398
H -4.583311 2.565955 10.667681
C -4.681672 1.042335 11.986896
H -5.605623 1.147056 12.181906
C 3.639765 7.257275 -2.826402
H 4.042368 7.825377 -3.472275
C 2.285224 7.425481 -2.496315
H 1.784078 8.117839 -2.911535
C 1.667682 6.595303 -1.572229
C 0.288130 6.777074 -1.212742
H -0.194701 7.488965 -1.616384
C 0.360364 4.876346 0.319417
C 4.381285 6.279510 -2.222869
H 5.301717 6.186725 -2.441603
C 3.793701 5.398327 -1.271767
C 2.413465 5.550798 -0.948491
C 1.789916 4.679382 -0.009194
C 2.566618 3.686424 0.577426
H 2.167664 3.091735 1.202072
C 3.925680 3.545348 0.265614
H 4.433529 2.860045 0.683331
C 4.531890 4.383665 -0.635884
H 5.455842 4.278944 -0.830894
C -3.639765 3.594725 2.826402
H -4.042368 3.026623 3.472275
C -2.285224 3.426519 2.496315
H -1.784078 2.734161 2.911535
C -1.667682 4.256697 1.572229
C -0.288130 4.074926 1.212742
H 0.194701 3.363035 1.616384
C -0.360364 5.975654 -0.319417
C -4.381285 4.572490 2.222869
H -5.301717 4.665275 2.441603
C -3.793701 5.453673 1.271767
C -2.413465 5.301202 0.948491
C -1.789916 6.172618 0.009194
C -2.566618 7.165576 -0.577426
H -2.167664 7.760265 -1.202072
C -3.925680 7.306652 -0.265614
H -4.433529 7.991955 -0.683331
C -4.531890 6.468335 0.635884
H -5.455842 6.573056 0.830894
C 3.489983 7.257275 8.524610
H 3.892586 7.825377 7.878737
C 2.135442 7.425481 8.854697
H 1.634297 8.117839 8.439477
C 1.517901 6.595303 9.778783
C 0.138349 6.777074 10.138270
H -0.344483 7.488965 9.734628
C 0.210583 4.876346 11.670429
C 4.231503 6.279510 9.128143
H 5.151935 6.186725 8.909409
C 3.643919 5.398327 10.079244
C 2.263683 5.550798 10.402521
C 1.640134 4.679382 11.341818
C 2.416837 3.686424 11.928438
H 2.017882 3.091735 12.553084
C 3.775899 3.545348 11.616626
H 4.283748 2.860045 12.034343
C 4.382108 4.383665 10.715128
H 5.306060 4.278944 10.520118
C -3.789547 3.594725 14.177414
H -4.192149 3.026623 14.823286
C -2.435006 3.426519 13.847326
H -1.933860 2.734161 14.262546
C -1.817464 4.256697 12.923240
C -0.437912 4.074926 12.563754
H 0.044919 3.363035 12.967396
C -0.510146 5.975654 11.031594
C -4.531067 4.572490 13.573880
H -5.451498 4.665275 13.792614
C -3.943483 5.453673 12.622779
C -2.563247 5.301202 12.299502
C -1.939698 6.172618 11.360206
C -2.716400 7.165576 10.773586
H -2.317446 7.760265 10.148940
C -4.075462 7.306652 11.085398
H -4.583311 7.991955 10.667681
C -4.681672 6.468335 11.986896
H -5.605623 6.573056 12.181906
C 15.254265 1.831275 -2.826402
H 15.656868 2.399377 -3.472275
C 13.899724 1.999481 -2.496315
H 13.398578 2.691839 -2.911535
C 13.282182 1.169303 -1.572229
C 11.902630 1.351074 -1.212742
H 11.419799 2.062965 -1.616384
C 11.974864 -0.549654 0.319417
C 15.995785 0.853510 -2.222869
H 16.916217 0.760725 -2.441603
C 15.408201 -0.027673 -1.271767
C 14.027965 0.124798 -0.948491
C 13.404416 -0.746618 -0.009194
C 14.181118 -1.739576 0.577426
H 13.782164 -2.334265 1.202072
C 15.540180 -1.880652 0.265614
H 16.048029 -2.565955 0.683331
C 16.146390 -1.042335 -0.635884
H 17.070342 -1.147056 -0.830894
C 7.974735 -1.831275 2.826402
H 7.572132 -2.399377 3.472275
C 9.329276 -1.999481 2.496315
H 9.830422 -2.691839 2.911535
C 9.946818 -1.169303 1.572229
C 11.326370 -1.351074 1.212742
H 11.809201 -2.062965 1.616384
C 11.254136 0.549654 -0.319417
C 7.233215 -0.853510 2.222869
H 6.312783 -0.760725 2.441603
C 7.820799 0.027673 1.271767
C 9.201035 -0.124798 0.948491
C 9.824584 0.746618 0.009194
C 9.047882 1.739576 -0.577426
H 9.446836 2.334265 -1.202072
C 7.688820 1.880652 -0.265614
H 7.180971 2.565955 -0.683331
C 7.082610 1.042335 0.635884
H 6.158658 1.147056 0.830894
C 15.104483 1.831275 8.524610
H 15.507086 2.399377 7.878737
C 13.749942 1.999481 8.854697
H 13.248797 2.691839 8.439477
C 13.132401 1.169303 9.778783
C 11.752849 1.351074 10.138270
H 11.270017 2.062965 9.734628
C 11.825083 -0.549654 11.670429
C 15.846003 0.853510 9.128143
H 16.766435 0.760725 8.909409
C 15.258419 -0.027673 10.079244
C 13.878183 0.124798 10.402521
C 13.254634 -0.746618 11.341818
C 14.031337 -1.739576 11.928438
H 13.632382 -2.334265 12.553084
C 15.390399 -1.880652 11.616626
H 15.898248 -2.565955 12.034343
C 15.996608 -1.042335 10.715128
H 16.920560 -1.147056 10.520118
C 7.824953 -1.831275 14.177414
H 7.422351 -2.399377 14.823286
C 9.179494 -1.999481 13.847326
H 9.680640 -2.691839 14.262546
C 9.797036 -1.169303 12.923240
C 11.176588 -1.351074 12.563754
H 11.659419 -2.062965 12.967396
C 11.104354 0.549654 11.031594
C 7.083433 -0.853510 13.573880
H 6.163002 -0.760725 13.792614
C 7.671017 0.027673 12.622779
C 9.051253 -0.124798 12.299502
C 9.674802 0.746618 11.360206
C 8.898100 1.739576 10.773586
H 9.297054 2.334265 10.148940
C 7.539038 1.880652 11.085398
H 7.031189 2.565955 10.667681
C 6.932828 1.042335 11.986896
H 6.008877 1.147056 12.181906
C 15.254265 7.257275 -2.826402
H 15.656868 7.825377 -3.472275
C 13.899724 7.425481 -2.496315
H 13.398578 8.117839 -2.911535
C 13.282182 6.595303 -1.572229
C 11.902630 6.777074 -1.212742
H 11.419799 7.488965 -1.616384
C 11.974864 4.876346 0.319417
C 15.995785 6.279510 -2.222869
H 16.916217 6.186725 -2.441603
C 15.408201 5.398327 -1.271767
C 14.027965 5.550798 -0.948491
C 13.404416 4.679382 -0.009194
C 14.181118 3.686424 0.577426
H 13.782164 3.091735 1.202072
C 15.540180 3.545348 0.265614
H 16.048029 2.860045 0.683331
C 16.146390 4.383665 -0.635884
H 17.070342 4.278944 -0.830894
C 7.974735 3.594725 2.826402
H 7.572132 3.026623 3.472275
C 9.329276 3.426519 2.496315
H 9.830422 2.734161 2.911535
C 9.946818 4.256697 1.572229
C 11.326370 4.074926 1.212742
H 11.809201 3.363035 1.616384
C 11.254136 5.975654 -0.319417
C 7.233215 4.572490 2.222869
H 6.312783 4.665275 2.441603
C 7.820799 5.453673 1.271767
C 9.201035 5.301202 0.948491
C 9.824584 6.172618 0.009194
C 9.047882 7.165576 -0.577426
H 9.446836 7.760265 -1.202072
C 7.688820 7.306652 -0.265614
H 7.180971 7.991955 -0.683331
C 7.082610 6.468335 0.635884
H 6.158658 6.573056 0.830894
C 15.104483 7.257275 8.524610
H 15.507086 7.825377 7.878737
C 13.749942 7.425481 8.854697
H 13.248797 8.117839 8.439477
C 13.132401 6.595303 9.778783
C 11.752849 6.777074 10.138270
H 11.270017 7.488965 9.734628
C 11.825083 4.876346 11.670429
C 15.846003 6.279510 9.128143
H 16.766435 6.186725 8.909409
C 15.258419 5.398327 10.079244
C 13.878183 5.550798 10.402521
C 13.254634 4.679382 11.341818
C 14.031337 3.686424 11.928438
H 13.632382 3.091735 12.553084
C 15.390399 3.545348 11.616626
H 15.898248 2.860045 12.034343
C 15.996608 4.383665 10.715128
H 16.920560 4.278944 10.520118
C 7.824953 3.594725 14.177414
H 7.422351 3.026623 14.823286
C 9.179494 3.426519 13.847326
H 9.680640 2.734161 14.262546
C 9.797036 4.256697 12.923240
C 11.176588 4.074926 12.563754
H 11.659419 3.363035 12.967396
C 11.104354 5.975654 11.031594
C 7.083433 4.572490 13.573880
H 6.163002 4.665275 13.792614
C 7.671017 5.453673 12.622779
C 9.051253 5.301202 12.299502
C 9.674802 6.172618 11.360206
C 8.898100 7.165576 10.773586
H 9.297054 7.760265 10.148940
C 7.539038 7.306652 11.085398
H 7.031189 7.991955 10.667681
C 6.932828 6.468335 11.986896
H 6.008877 6.573056 12.181906
C -3.714656 4.544275 8.501908
H -4.117259 5.112377 9.147780
C -2.360115 4.712481 8.171820
H -1.858969 5.404839 8.587040
C -1.742573 3.882303 7.247735
C -0.363021 4.064074 6.888248
H 0.119810 4.775965 7.291890
C -0.435255 2.163346 5.356088
C -4.456176 3.566510 7.898375
H -5.376608 3.473725 8.117109
C -3.868592 2.685327 6.947273
C -2.488356 2.837798 6.623996
C -1.864807 1.966382 5.684700
C -2.641509 0.973424 5.098080
H -2.242555 0.378735 4.473434
C -4.000571 0.832348 5.409892
H -4.508420 0.147045 4.992175
C -4.606781 1.670665 6.311390
H -5.530733 1.565944 6.506400
C 3.564874 0.881725 2.849104
H 3.967477 0.313623 2.203231
C 2.210333 0.713519 3.179191
H 1.709187 0.021161 2.763971
C 1.592791 1.543697 4.103277
C 0.213240 1.361926 4.462764
H -0.269592 0.650035 4.059122
C 0.285473 3.262654 5.994923
C 4.306394 1.859490 3.452637
H 5.226826 1.952275 3.233903
C 3.718810 2.740673 4.403739
C 2.338574 2.588202 4.727015
C 1.715025 3.459618 5.666312
C 2.491727 4.452576 6.252932
H 2.092773 5.047265 6.877578
C 3.850790 4.593652 5.941120
H 4.358639 5.278955 6.358837
C 4.456999 3.755335 5.039622
H 5.380951 3.860056 4.844612
C 7.899844 4.544275 8.501908
H 7.497241 5.112377 9.147780
C 9.254385 4.712481 8.171820
H 9.755531 5.404839 8.587040
C 9.871927 3.882303 7.247735
C 11.251479 4.064074 6.888248
H 11.734310 4.775965 7.291890
C 11.179245 2.163346 5.356088
C 7.158324 3.566510 7.898375
H 6.237892 3.473725 8.117109
C 7.745908 2.685327 6.947273
C 9.126144 2.837798 6.623996
C 9.749693 1.966382 5.684700
C 8.972991 0.973424 5.098080
H 9.371945 0.378735 4.473434
C 7.613929 0.832348 5.409892
H 7.106080 0.147045 4.992175
C 7.007719 1.670665 6.311390
H 6.083767 1.565944 6.506400
C 15.179374 0.881725 2.849104
H 15.581977 0.313623 2.203231
C 13.824833 0.713519 3.179191
H 13.323687 0.021161 2.763971
C 13.207291 1.543697 4.103277
C 11.827740 1.361926 4.462764
H 11.344908 0.650035 4.059122
C 11.899973 3.262654 5.994923
C 15.920894 1.859490 3.452637
H 16.841326 1.952275 3.233903
C 15.333310 2.740673 4.403739
C 13.953074 2.588202 4.727015
C 13.329525 3.459618 5.666312
C 14.106227 4.452576 6.252932
H 13.707273 5.047265 6.877578
C 15.465290 4.593652 5.941120
H 15.973139 5.278955 6.358837
C 16.071499 3.755335 5.039622
H 16.995451 3.860056 4.844612
