208
Lattice="9.744200 0.000000 0.000000 0.000000 13.165400 0.000000 -1.222939 0.000000 17.783199"
Br 8.916493 12.287136 2.195336
C 8.539168 10.425680 2.347382
C 9.560388 9.552814 2.687041
H 10.438053 9.879316 2.847090
C 9.290080 8.205994 2.791962
H 9.982462 7.599069 3.024922
C 8.007076 7.734673 2.560781
C 6.983051 8.631236 2.233570
H 6.104534 8.308684 2.071743
C 7.245316 9.983323 2.146432
H 6.549268 10.599464 1.952595
N 7.711065 6.356255 2.671037
C 6.565949 5.840171 3.297005
H 5.917345 6.356255 3.759368
C 6.527015 4.505200 3.140513
H 5.854938 3.923289 3.476615
C 7.666321 4.116821 2.386505
C 8.138208 2.879273 1.858344
H 7.658261 2.076184 2.021950
C 9.272270 2.856892 1.123898
H 9.592219 2.031421 0.778904
C 9.982208 4.036512 0.860707
H 10.776016 3.995699 0.341437
C 9.551258 5.262210 1.346188
H 10.028045 6.062667 1.157686
C 8.397333 5.276692 2.114422
Br 5.088337 18.869836 6.696264
C 5.465662 17.008380 6.544217
C 4.444442 16.135514 6.204558
H 3.566778 16.462016 6.044509
C 4.714751 14.788694 6.099637
H 4.022368 14.181769 5.866677
C 5.997755 14.317372 6.330819
C 7.021780 15.213936 6.658030
H 7.900296 14.891384 6.819857
C 6.759515 16.566023 6.745167
H 7.455562 17.182164 6.939004
N 6.293765 12.938955 6.220563
C 7.438882 12.422871 5.594594
H 8.087486 12.938955 5.132231
C 7.477815 11.087900 5.751087
H 8.149892 10.505989 5.414984
C 6.338510 10.699521 6.505094
C 5.866623 9.461973 7.033255
H 6.346570 8.658884 6.869650
C 4.732560 9.439592 7.767701
H 4.412612 8.614121 8.112695
C 4.022623 10.619212 8.030893
H 3.228814 10.578399 8.550162
C 4.453572 11.844910 7.545411
H 3.976785 12.645367 7.733913
C 5.607498 11.859392 6.777177
Br -0.395233 0.878264 15.587863
C -0.017907 2.739720 15.435817
C -1.039127 3.612586 15.096158
H -1.916792 3.286084 14.936109
C -0.768819 4.959406 14.991237
H -1.461202 5.566331 14.758277
C 0.514185 5.430728 15.222419
C 1.538210 4.534164 15.549629
H 2.416727 4.856716 15.711457
C 1.275945 3.182077 15.636767
H 1.971993 2.565936 15.830604
N 0.810195 6.809145 15.112163
C 1.955312 7.325229 14.486194
H 2.603916 6.809145 14.023831
C 1.994246 8.660200 14.642686
H 2.666323 9.242111 14.306584
C 0.854940 9.048579 15.396694
C 0.383053 10.286127 15.924855
H 0.863000 11.089216 15.761249
C -0.751009 10.308508 16.659301
H -1.070958 11.133979 17.004295
C -1.460947 9.128888 16.922492
H -2.254756 9.169701 17.441762
C -1.029997 7.903190 16.437011
H -1.506784 7.102733 16.625513
C 0.123928 7.888708 15.668777
Br 3.432924 -5.704436 11.086936
C 3.055599 -3.842980 11.238982
C 4.076819 -2.970114 11.578641
H 4.954483 -3.296616 11.738690
C 3.806510 -1.623294 11.683562
H 4.498893 -1.016369 11.916522
C 2.523506 -1.151972 11.452380
C 1.499481 -2.048536 11.125169
H 0.620965 -1.725984 10.963342
C 1.761746 -3.400623 11.038032
H 1.065698 -4.016764 10.844195
N 2.227496 0.226445 11.562636
C 1.082379 0.742529 12.188605
H 0.433775 0.226445 12.650968
C 1.043446 2.077500 12.032113
H 0.371369 2.659411 12.368215
C 2.182751 2.465879 11.278105
C 2.654638 3.703427 10.749944
H 2.174691 4.506516 10.913549
C 3.788701 3.725808 10.015498
H 4.108649 4.551279 9.670504
C 4.498638 2.546188 9.752306
H 5.292447 2.587001 9.233037
C 4.067689 1.320490 10.237788
H 4.544476 0.520033 10.049286
C 2.913763 1.306008 11.006022
Br 0.126236 8.947469 7.759877
C 0.328233 7.156711 7.143511
C 1.207704 6.333874 7.815716
H 1.676310 6.644577 8.582172
C 1.390173 5.044981 7.344461
H 1.994069 4.459121 7.787263
C 0.687075 4.603940 6.218785
C -0.209586 5.442576 5.598151
H -0.709866 5.131873 4.853035
C -0.385229 6.726203 6.055179
H -0.995461 7.310747 5.619491
N 0.882593 3.305832 5.685289
C 1.004529 2.995129 4.323096
H 0.964407 3.629701 3.617103
C 1.185573 1.678589 4.155934
H 1.319297 1.225699 3.330793
C 1.139418 1.084829 5.450551
C 1.217731 -0.267258 5.912914
H 1.349080 -0.986088 5.306507
C 1.095922 -0.489753 7.259102
H 1.134808 -1.381050 7.586313
C 0.911012 0.591126 8.190942
H 0.830731 0.396279 9.117446
C 0.847911 1.887918 7.776593
H 0.727888 2.606749 8.388335
C 0.972414 2.102514 6.377055
Br 4.134395 15.530169 1.131723
C 3.932398 13.739411 1.748088
C 3.052926 12.916574 1.075884
H 2.584320 13.227277 0.309428
C 2.870457 11.627681 1.547138
H 2.266561 11.041821 1.104337
C 3.573556 11.186640 2.672815
C 4.470216 12.025276 3.293448
H 4.970497 11.714573 4.038565
C 4.645860 13.308903 2.836420
H 5.256092 13.893447 3.272109
N 3.378037 9.888532 3.206311
C 3.256102 9.577829 4.568504
H 3.296223 10.212401 5.274497
C 3.075057 8.261288 4.735666
H 2.941334 7.808399 5.560806
C 3.121213 7.667529 3.441049
C 3.042900 6.315442 2.978686
H 2.911551 5.596612 3.585093
C 3.164709 6.092947 1.632498
H 3.125822 5.201650 1.305287
C 3.349619 7.173826 0.700658
H 3.429899 6.978979 -0.225847
C 3.412720 8.470618 1.115007
H 3.532742 9.189449 0.503265
C 3.288216 8.685214 2.514544
Br 8.395025 4.217931 10.023322
C 8.193028 6.008689 10.639688
C 7.313556 6.831526 9.967483
H 6.844950 6.520823 9.201027
C 7.131088 8.120419 10.438738
H 6.527192 8.706279 9.995936
C 7.834186 8.561460 11.564414
C 8.730847 7.722824 12.185048
H 9.231127 8.033527 12.930164
C 8.906490 6.439197 11.728020
H 9.516722 5.854653 12.163708
N 7.638668 9.859568 12.097910
C 7.516732 10.170272 13.460103
H 7.556854 9.535699 14.166097
C 7.335688 11.486812 13.627266
H 7.201964 11.939701 14.452406
C 7.381843 12.080571 12.332649
C 7.303530 13.432658 11.870285
H 7.172181 14.151488 12.476693
C 7.425339 13.655153 10.524097
H 7.386453 14.546450 10.196886
C 7.610249 12.574274 9.592258
H 7.690529 12.769121 8.665753
C 7.673350 11.277482 10.006606
H 7.793373 10.558651 9.394864
C 7.548847 11.062886 11.406144
Br 4.386866 -2.364769 16.651476
C 4.588863 -0.574011 16.035111
C 5.468335 0.248826 16.707316
H 5.936941 -0.061877 17.473772
C 5.650803 1.537719 16.236061
H 6.254700 2.123579 16.678863
C 4.947705 1.978760 15.110384
C 4.051045 1.140124 14.489751
H 3.550764 1.450827 13.744635
C 3.875401 -0.143503 14.946779
H 3.265169 -0.728047 14.511091
N 5.143224 3.276868 14.576888
C 5.265159 3.587572 13.214695
H 5.225038 2.952999 12.508702
C 5.446204 4.904112 13.047533
H 5.579927 5.357001 12.222393
C 5.400048 5.497871 14.342150
C 5.478361 6.849958 14.804513
H 5.609710 7.568788 14.198106
C 5.356552 7.072453 16.150702
H 5.395439 7.963750 16.477912
C 5.171642 5.991574 17.082541
H 5.091362 6.186421 18.009046
C 5.108541 4.694782 16.668193
H 4.988518 3.975951 17.279935
C 5.233045 4.480186 15.268655
