96
Lattice="9.946100 0.000000 0.000000 0.000000 6.982500 0.000000 -0.613912 0.000000 15.192501"
I 3.265301 1.850502 0.393425
C 0.285961 5.105604 1.488865
H 0.010309 5.053235 2.427762
H -0.475458 4.887052 0.911550
H 0.597359 6.014027 1.289843
O 1.352584 4.171346 1.250039
C 2.476947 4.310297 2.009208
C 2.667878 5.295528 2.969982
H 2.000428 5.960262 3.094713
C 3.810086 5.324854 3.747838
H 3.927335 6.014027 4.390633
C 4.792115 4.345210 3.591507
C 4.626682 3.373944 2.615085
H 5.299240 2.714796 2.487012
C 3.491799 3.358582 1.828266
N 5.934885 4.327754 4.436666
C 6.017757 4.877276 5.701290
H 5.326400 5.352784 6.146886
C 7.257767 4.621018 6.200212
H 7.588478 4.888448 7.049321
C 7.964779 3.882968 5.219536
H 8.855900 3.562472 5.294587
C 7.133865 3.716087 4.146793
H 7.346396 3.258034 3.342350
I 1.400793 -1.640748 7.202826
C 4.380133 1.614354 6.107386
H 4.655785 1.561985 5.168489
H 5.141552 1.395802 6.684701
H 4.068735 2.522777 6.306407
O 3.313510 0.680096 6.346212
C 2.189147 0.819047 5.587042
C 1.998216 1.804278 4.626269
H 2.665666 2.469012 4.501538
C 0.856008 1.833605 3.848413
H 0.738759 2.522777 3.205618
C -0.126021 0.853960 4.004743
C 0.039412 -0.117306 4.981165
H -0.633146 -0.776454 5.109238
C 1.174295 -0.132667 5.767985
N -1.268791 0.836504 3.159584
C -1.351663 1.386026 1.894961
H -0.660306 1.861535 1.449365
C -2.591673 1.129768 1.396039
H -2.922384 1.397198 0.546930
C -3.298685 0.391718 2.376715
H -4.189806 0.071222 2.301664
C -2.467771 0.224837 3.449457
H -2.680302 -0.233215 4.253900
I 6.066887 5.131998 14.799076
C 9.046227 1.876896 13.703636
H 9.321879 1.929265 12.764740
H 9.807646 2.095448 14.280951
H 8.734829 0.968473 13.902658
O 7.979604 2.811155 13.942462
C 6.855241 2.672203 13.183293
C 6.664310 1.686972 12.222519
H 7.331760 1.022238 12.097789
C 5.522102 1.657646 11.444663
H 5.404853 0.968473 10.801868
C 4.540073 2.637290 11.600994
C 4.705506 3.608556 12.577416
H 4.032948 4.267704 12.705489
C 5.840389 3.623918 13.364236
N 3.397303 2.654747 10.755835
C 3.314431 2.105224 9.491211
H 4.005788 1.629716 9.045615
C 2.074421 2.361482 8.992290
H 1.743710 2.094052 8.143181
C 1.367409 3.099532 9.972966
H 0.476288 3.420029 9.897915
C 2.198323 3.266414 11.045708
H 1.985792 3.724466 11.850151
I 7.931395 8.623248 7.989676
C 4.952055 5.368146 9.085116
H 4.676403 5.420515 10.024012
H 4.190636 5.586698 8.507801
H 5.263453 4.459723 8.886094
O 6.018678 6.302405 8.846290
C 7.143041 6.163453 9.605459
C 7.333972 5.178222 10.566233
H 6.666522 4.513488 10.690963
C 8.476180 5.148896 11.344089
H 8.593429 4.459723 11.986884
C 9.458209 6.128540 11.187758
C 9.292776 7.099806 10.211336
H 9.965334 7.758954 10.083263
C 8.157893 7.115168 9.424516
N 10.600979 6.145997 12.032917
C 10.683851 5.596474 13.297541
H 9.992494 5.120966 13.743137
C 11.923861 5.852732 13.796462
H 12.254571 5.585302 14.645571
C 12.630872 6.590782 12.815786
H 13.521994 6.911279 12.890837
C 11.799959 6.757664 11.743044
H 12.012490 7.215716 10.938601
