184
Lattice="9.412000 0.000000 0.000000 0.000000 9.116000 0.000000 -1.772333 0.000000 21.284337"
S 1.939988 3.911676 12.883409
S 0.951944 3.877946 8.811716
O 0.543088 3.617229 12.670566
O 2.928841 2.875186 12.706749
O 2.346815 3.653693 9.105439
O 0.010561 2.806816 8.994761
N 2.395282 5.117722 11.925614
N 0.439903 5.113164 9.716300
C 1.568266 6.290952 11.582936
C 2.305257 7.570838 11.989467
C 1.577048 8.835227 11.533982
C 1.344519 8.813349 10.031308
C 0.566115 7.566280 9.624777
C 1.276386 6.282747 10.069620
C 2.086918 4.445873 14.577642
C 3.160162 5.244435 14.958632
C 3.351804 5.530677 16.308059
C 2.487620 4.998303 17.259469
C 1.416790 4.207946 16.872094
C 1.204264 3.933554 15.524795
C 0.870788 4.339216 7.096198
C 1.575440 5.444987 6.636456
C 1.523805 5.759489 5.278516
C 0.814333 4.955458 4.405858
C 0.133621 3.853333 4.871985
C 0.150022 3.537920 6.223540
H 0.704007 6.238990 12.083118
H 3.213361 7.559899 11.595707
H 2.402967 7.589982 12.974932
H 0.706977 8.901774 12.002238
H 2.115330 9.631054 11.772367
H 2.216472 8.827023 9.563053
H 0.839601 9.621026 9.765254
H 0.456933 7.556252 8.641441
H -0.336464 7.598186 10.031308
H 2.145583 6.213466 9.577952
H 3.756704 5.591754 14.305203
H 4.071902 6.088576 16.578370
H 2.633001 5.176976 18.181081
H 0.826659 3.853333 17.527652
H 0.465342 3.402091 15.254484
H 2.085651 5.977361 7.234546
H 1.976344 6.528879 4.952865
H 0.797487 5.165126 3.477861
H -0.349528 3.304550 4.265381
H -0.326811 2.782203 6.547062
S 4.813513 -0.646324 19.043096
S 5.801558 -0.680054 23.114790
O 6.210413 -0.940771 19.255940
O 3.824661 -1.682814 19.219756
O 4.406686 -0.904307 22.821066
O 6.742941 -1.751184 22.931745
N 4.358219 0.559722 20.000891
N 6.313599 0.555164 22.210206
C 5.185235 1.732952 20.343569
C 4.448244 3.012838 19.937038
C 5.176453 4.277227 20.392523
C 5.408982 4.255349 21.895197
C 6.187386 3.008280 22.301728
C 5.477115 1.724747 21.856886
C 4.666583 -0.112127 17.348863
C 3.593339 0.686435 16.967873
C 3.401698 0.972677 15.618446
C 4.265882 0.440303 14.667037
C 5.336712 -0.350054 15.054412
C 5.549237 -0.624446 16.401710
C 5.882713 -0.218784 24.830308
C 5.178061 0.886987 25.290049
C 5.229696 1.201489 26.647990
C 5.939168 0.397458 27.520648
C 6.619881 -0.704667 27.054521
C 6.603479 -1.020080 25.702965
H 6.049494 1.680990 19.843387
H 3.540140 3.001899 20.330799
H 4.350534 3.031982 18.951574
H 6.046524 4.343774 19.924268
H 4.638172 5.073054 20.154139
H 4.537029 4.269023 22.363453
H 5.913900 5.063026 22.161252
H 6.296568 2.998252 23.285065
H 7.089966 3.040186 21.895197
H 4.607918 1.655466 22.348554
H 2.996797 1.033754 17.621303
H 2.681599 1.530576 15.348135
H 4.120500 0.618976 13.745425
H 5.926842 -0.704667 14.398854
H 6.288159 -1.155909 16.672021
H 4.667850 1.419361 24.691959
H 4.777157 1.970879 26.973640
H 5.956014 0.607126 28.448645
H 7.103029 -1.253450 27.661124
H 7.080312 -1.775797 25.379443
S 5.699679 5.204324 8.400928
S 6.687724 5.238054 12.472621
O 7.096579 5.498771 8.613771
O 4.710827 6.240814 8.577588
O 5.292853 5.462307 12.178898
O 7.629107 6.309184 12.289576
N 5.244385 3.998278 9.358723
N 7.199765 4.002836 11.568037
C 6.071402 2.825048 9.701401
C 5.334410 1.545162 9.294870
C 6.062619 0.280773 9.750355
C 6.295149 0.302651 11.253029
C 7.073553 1.549720 11.659560
C 6.363282 2.833253 11.214717
C 5.552750 4.670127 6.706695
C 4.479506 3.871565 6.325705
C 4.287864 3.585323 4.976278
C 5.152048 4.117697 4.024868
C 6.222878 4.908054 4.412243
C 6.435403 5.182446 5.759542
C 6.768880 4.776784 14.188139
C 6.064228 3.671013 14.647881
C 6.115863 3.356511 16.005821
C 6.825334 4.160542 16.878479
C 7.506047 5.262667 16.412352
C 7.489645 5.578080 15.060797
H 6.935660 2.877010 9.201219
H 4.426306 1.556101 9.688630
H 5.236700 1.526018 8.309405
H 6.932690 0.214226 9.282099
H 5.524338 -0.515054 9.511970
H 5.423195 0.288977 11.721284
H 6.800066 -0.505026 11.519083
H 7.182734 1.559748 12.642896
H 7.976132 1.517814 11.253029
H 5.494085 2.902534 11.706385
H 3.882964 3.524246 6.979134
H 3.567766 3.027424 4.705967
H 5.006667 3.939024 3.103256
H 6.813009 5.262667 3.756685
H 7.174325 5.713909 6.029853
H 5.554016 3.138639 14.049791
H 5.663324 2.587121 16.331472
H 6.842181 3.950874 17.806476
H 7.989196 5.811450 17.018956
H 7.966479 6.333797 14.737275
S 2.826155 9.762324 2.241241
S 1.838110 9.796054 -1.830453
O 1.429254 10.056771 2.028397
O 3.815007 10.798814 2.064581
O 3.232981 10.020307 -1.536729
O 0.896727 10.867184 -1.647408
N 3.281448 8.556278 1.283446
N 1.326069 8.560836 -0.925869
C 2.454432 7.383048 0.940768
C 3.191423 6.103162 1.347299
C 2.463214 4.838773 0.891814
C 2.230685 4.860651 -0.610860
C 1.452281 6.107720 -1.017391
C 2.162552 7.391253 -0.572549
C 2.973084 9.228127 3.935474
C 4.046328 8.429565 4.316464
C 4.237970 8.143323 5.665891
C 3.373786 8.675697 6.617300
C 2.302956 9.466054 6.229925
C 2.090431 9.740446 4.882627
C 1.756954 9.334784 -3.545971
C 2.461606 8.229013 -4.005712
C 2.409971 7.914511 -5.363653
C 1.700499 8.718542 -6.236311
C 1.019787 9.820667 -5.770184
C 1.036188 10.136080 -4.418628
H 1.590173 7.435010 1.440950
H 4.099528 6.114101 0.953538
H 3.289134 6.084018 2.332763
H 1.593144 4.772226 1.360069
H 3.001496 4.042946 1.130198
H 3.102638 4.846977 -1.079116
H 1.725767 4.052974 -0.876915
H 1.343099 6.117748 -2.000728
H 0.549702 6.075814 -0.610860
H 3.031749 7.460534 -1.064217
H 4.642870 8.082246 3.663034
H 4.958068 7.585424 5.936202
H 3.519167 8.497024 7.538912
H 1.712825 9.820667 6.885483
H 1.351508 10.271909 4.612316
H 2.971818 7.696639 -3.407622
H 2.862510 7.145121 -5.689303
H 1.683653 8.508874 -7.164308
H 0.536638 10.369450 -6.376787
H 0.559355 10.891797 -4.095106
