148
Lattice="8.857000 0.000000 0.000000 4.024258 7.888858 0.000000 0.234054 0.137963 22.922390"
O 0.189543 3.839908 4.391930
N 1.763129 2.273288 1.657289
C 1.742106 -0.090118 2.459572
C 3.763473 1.417355 2.707134
C 2.230472 1.340957 2.727764
C 1.080116 3.197367 2.230349
C 1.608110 1.862110 3.988496
C 0.932791 2.970113 3.662998
C 2.350357 -1.172551 3.101399
C 4.505701 1.710549 3.841793
C 0.683905 -0.369686 1.622905
C 0.490255 4.365943 1.483079
C 0.065443 3.524908 5.794780
C 5.883306 1.786713 3.782194
C 4.430879 1.183050 1.526631
C 1.894826 -2.458777 2.913436
C 0.227685 -1.669351 1.430357
C -0.781985 4.564702 6.457237
C 0.837893 -2.692549 2.083645
C 6.544793 1.552574 2.629198
C 5.843961 1.262493 1.487663
H 3.970417 0.972849 0.680795
H 6.407412 1.081605 0.662457
H 7.609141 1.572475 2.658997
H 6.473474 2.059001 4.589062
H 4.091827 1.851232 4.671583
H 0.297855 0.375253 1.136951
H -0.649475 -1.840819 0.859590
H 0.314541 -3.595059 1.948403
H 2.189817 -3.209045 3.431482
H 3.093400 -0.948159 3.683628
H 1.691345 1.574938 4.903099
H 0.942433 4.327387 0.582229
H 1.115569 5.199026 1.879636
H -0.237932 4.377760 1.611444
H -0.188170 2.645962 5.904808
H 1.153551 3.465969 6.225721
H -0.670947 4.428525 7.424562
H -1.399598 4.635682 6.060680
H -0.056613 5.456463 6.379301
O 12.925769 4.186914 18.530460
N 11.352183 5.753533 21.265101
C 11.373206 8.116940 20.462818
C 9.351839 6.609467 20.215256
C 10.884840 6.685864 20.194626
C 12.035196 4.829454 20.692041
C 11.507202 6.164712 18.933894
C 12.182521 5.056709 19.259392
C 10.764954 9.199373 19.820991
C 8.609611 6.316272 19.080597
C 12.431407 8.396508 21.299485
C 12.625057 3.660879 21.439311
C 13.049868 4.501913 17.127610
C 7.232006 6.240109 19.140196
C 8.684433 6.843771 21.395759
C 11.220486 10.485599 20.008954
C 12.887627 9.696173 21.492033
C 13.897297 3.462119 16.465153
C 12.277418 10.719370 20.838745
C 6.570519 6.474247 20.293192
C 7.271351 6.764328 21.434727
H 9.144895 7.053972 22.241595
H 6.707900 6.945216 22.259933
H 5.506171 6.454346 20.263393
H 6.641838 5.967820 18.333327
H 9.023484 6.175589 18.250807
H 12.817457 7.651569 21.785439
H 13.764787 9.867641 22.062800
H 12.800771 11.621881 20.973987
H 10.925495 11.235867 19.490908
H 10.021912 8.974980 19.238762
H 11.423966 6.451884 18.019291
H 12.172879 3.699434 22.340161
H 11.999742 2.827795 21.042754
H 13.353243 3.649062 21.310946
H 13.303481 5.380859 17.017582
H 11.961761 4.560853 16.696669
H 13.786259 3.598297 15.497828
H 14.514910 3.391140 16.861710
H 13.171925 2.570358 16.543089
O 3.046220 5.593132 7.066514
N 3.730874 3.474855 9.799322
C 5.834907 2.408933 8.990161
C 4.362411 2.640871 8.728846
C 4.180796 3.433089 7.447484
C 6.554545 3.221027 9.831413
C 3.228987 4.511212 9.235431
C 3.602638 1.303875 8.756353
C 2.994981 0.789875 7.635448
C 3.490403 4.533329 7.798197
C 6.496543 1.395297 8.348334
C 3.389892 5.558755 5.680168
C 7.939340 3.061239 10.021669
C 2.434455 5.590975 9.984993
C 3.489483 0.607252 9.929979
C 2.772587 6.785360 5.006250
C 7.876939 1.197560 8.524837
C 2.296014 -0.411171 7.706508
C 2.191618 -1.102423 8.854919
C 8.590254 2.035617 9.354627
C 2.784024 -0.592339 9.980409
H 6.026623 0.796834 7.743183
H 8.376261 0.460375 8.070974
H 9.652245 1.885892 9.512792
H 8.647880 3.670773 10.631404
H 6.330002 3.937728 10.289861
H 3.139384 1.277741 6.773566
H 1.819209 -0.755593 6.842333
H 1.627833 -1.950530 8.845750
H 2.630691 -1.083499 10.819368
H 3.942134 0.965640 10.755185
H 4.620886 3.315535 6.528297
H 4.678014 5.503646 5.567849
H 3.324841 4.688552 5.276734
O 10.069092 2.433689 15.855876
N 9.384438 4.551967 13.123068
C 7.280405 5.617888 13.932229
C 8.752901 5.385951 14.193544
C 8.934516 4.593733 15.474905
C 6.560767 4.805795 13.090977
C 9.886325 3.515609 13.686959
C 9.512674 6.722947 14.166037
C 10.120330 7.236947 15.286942
C 9.624909 3.493493 15.124193
C 6.618769 6.631525 14.574056
C 9.725420 2.468067 17.242222
C 5.175972 4.965582 12.900721
C 10.680857 2.435846 12.937397
C 9.625829 7.419569 12.992411
C 10.342725 1.241461 17.916140
C 5.238373 6.829262 14.397553
C 10.819298 8.437992 15.215882
C 10.923694 9.129244 14.067471
C 4.525057 5.991204 13.567763
C 10.331288 8.619161 12.941981
H 7.088688 7.229987 15.179207
H 4.739051 7.566446 14.851416
H 3.463067 6.140929 13.409598
H 4.467432 4.356048 12.290985
H 6.785310 4.089094 12.632529
H 9.975927 6.749080 16.148824
H 11.296103 8.782414 16.080057
H 11.487479 9.977351 14.076640
H 10.484620 9.110321 12.103022
H 9.173178 7.061181 12.167205
H 8.494425 4.711287 16.394093
H 8.437298 2.523176 17.354541
H 9.790471 3.338269 17.645656
