496
Lattice="16.704000 0.000000 0.000000 0.000000 19.860000 0.000000 -3.191823 0.000000 15.007329"
C 14.739172 9.255952 5.845355
C 14.242862 8.042307 6.262558
H 13.376574 7.981734 6.597222
C 16.815745 8.192250 5.333605
H 17.695130 8.257788 5.039461
C 16.030050 9.328043 5.407141
H 16.385696 10.150446 5.156518
C 13.857988 10.494421 5.857360
H 12.983178 10.261662 6.208532
H 14.247671 11.161320 6.444147
C 14.204897 12.225816 4.053480
H 14.648618 12.833532 4.598246
C 13.307123 11.312455 2.360653
C 13.108581 10.443381 3.427674
C 12.433261 9.252973 3.312117
H 12.303513 8.688750 4.039973
C 11.962493 8.940972 2.062007
H 11.506240 8.140614 1.937446
C 12.146565 9.781050 0.984481
H 11.806600 9.532800 0.156076
C 12.814811 10.970664 1.094034
H 12.935812 11.528730 0.360176
C 16.310806 6.975229 5.689278
C 17.157751 5.721666 5.492682
C 15.044867 6.900953 6.183019
H 14.709957 6.083118 6.469659
N 13.707785 11.059637 4.514505
O 16.542288 4.638303 5.776621
H 17.043100 3.999804 5.654761
O 18.319180 5.827718 5.115698
N 14.007079 12.430573 2.770353
C 0.368916 19.185952 1.658310
C 0.865227 17.972307 1.241106
H 1.731515 17.911734 0.906443
C -1.707656 18.122250 2.170060
H -2.587041 18.187788 2.464203
C -0.921962 19.258043 2.096524
H -1.277607 20.080446 2.347146
C 1.250100 20.424421 1.646304
H 2.124911 20.191662 1.295132
H 0.860417 21.091320 1.059517
C 0.903192 22.155816 3.450185
H 0.459471 22.763532 2.905419
C 1.800966 21.242455 5.143012
C 1.999507 20.373381 4.075991
C 2.674828 19.182973 4.191547
H 2.804575 18.618750 3.463691
C 3.145596 18.870972 5.441657
H 3.601849 18.070614 5.566218
C 2.961523 19.711050 6.519184
H 3.301488 19.462800 7.347588
C 2.293278 20.900664 6.409630
H 2.172276 21.458730 7.143489
C -1.202717 16.905229 1.814386
C -2.049663 15.651666 2.010982
C 0.063222 16.830953 1.320645
H 0.398131 16.013118 1.034005
N 1.400303 20.989637 2.989160
O -1.434199 14.568303 1.727043
H -1.935012 13.929804 1.848903
O -3.211091 15.757718 2.387966
N 1.101010 22.360573 4.733312
C -1.226995 10.604048 9.161974
C -0.730685 11.817693 8.744770
H 0.135603 11.878266 8.410107
C -3.303567 11.667750 9.673724
H -4.182953 11.602212 9.967868
C -2.517873 10.531957 9.600188
H -2.873519 9.709554 9.850811
C -0.345811 9.365579 9.149968
H 0.528999 9.598338 8.798797
H -0.735494 8.698680 8.563182
C -0.692719 7.634184 10.953849
H -1.136440 7.026468 10.409083
C 0.205054 8.547545 12.646676
C 0.403596 9.416619 11.579655
C 1.078917 10.607027 11.695211
H 1.208664 11.171250 10.967356
C 1.549684 10.919028 12.945322
H 2.005938 11.719386 13.069883
C 1.365612 10.078950 14.022848
H 1.705577 10.327200 14.851253
C 0.697367 8.889336 13.913295
H 0.576365 8.331270 14.647153
C -2.798628 12.884771 9.318050
C -3.645574 14.138334 9.514646
C -1.532689 12.959047 8.824309
H -1.197780 13.776882 8.537669
N -0.195608 8.800363 10.492824
O -3.030111 15.221697 9.230708
H -3.530923 15.860196 9.352567
O -4.807002 14.032282 9.891631
N -0.494901 7.429427 12.236976
C 13.143261 0.674048 13.349019
C 12.646951 1.887693 13.766223
H 11.780663 1.948266 14.100886
C 15.219833 1.737750 12.837269
H 16.099219 1.672212 12.543125
C 14.434139 0.601957 12.910805
H 14.789785 -0.220446 12.660183
C 12.262077 -0.564421 13.361025
H 11.387267 -0.331662 13.712196
H 12.651760 -1.231320 13.947811
C 12.608985 -2.295816 11.557144
H 13.052706 -2.903532 12.101910
C 11.711212 -1.382455 9.864317
C 11.512670 -0.513381 10.931338
C 10.837349 0.677027 10.815782
H 10.707602 1.241250 11.543637
C 10.366582 0.989028 9.565671
H 9.910328 1.789386 9.441111
C 10.550654 0.148950 8.488145
H 10.210689 0.397200 7.659741
C 11.218899 -1.040664 8.597699
H 11.339901 -1.598730 7.863840
C 14.714894 2.954771 13.192943
C 15.561840 4.208334 12.996347
C 13.448955 3.029047 13.686684
H 13.114046 3.846882 13.973324
N 12.111874 -1.129637 12.018169
O 14.946377 5.291697 13.280285
H 15.447189 5.930196 13.158426
O 16.723269 4.102282 12.619363
N 12.411168 -2.500573 10.274017
C -1.323911 6.188376 1.889423
C 1.268284 9.586422 1.929942
C 1.790523 8.323922 2.105528
H 2.705254 8.214096 2.242095
C 0.957728 7.213946 2.078515
H 1.315257 6.367116 2.219584
C -0.392594 7.352569 1.845901
C -0.912429 8.611296 1.643303
H -1.819819 8.716554 1.472219
C -0.087762 9.715115 1.692827
H -0.449835 10.561548 1.565264
C 2.145669 10.818338 2.006480
H 3.076476 10.547646 2.012483
H 1.997534 11.365878 1.218595
C 0.931206 12.585282 3.310617
H 0.402964 12.863322 2.597769
C 1.796433 12.431764 5.258568
C 2.446845 11.491195 4.446672
C 3.478515 10.707718 4.920903
H 3.910477 10.084908 4.382140
C 3.835727 10.901154 6.241548
H 4.520188 10.386780 6.604725
C 3.197572 11.840532 7.042939
H 3.468934 11.943804 7.926871
C 2.181574 12.615072 6.565706
H 1.762656 13.246620 7.105970
N 0.843219 13.099855 4.509702
N 1.865906 11.612936 3.204065
O -0.792997 5.122291 2.376861
H -1.344838 4.516164 2.372659
O -2.458493 6.249346 1.497731
C 16.432000 16.118376 5.614242
C 13.839805 19.516422 5.573722
C 13.317565 18.253922 5.398136
H 12.402835 18.144096 5.261569
C 14.150361 17.143946 5.425149
H 13.792831 16.297116 5.284080
C 15.500683 17.282569 5.657763
C 16.020518 18.541296 5.860362
H 16.927907 18.646554 6.031445
C 15.195851 19.645115 5.810838
H 15.557924 20.491548 5.938400
C 12.962419 20.748338 5.497185
H 12.031613 20.477646 5.491182
H 13.110554 21.295878 6.285069
C 14.176883 22.515282 4.193048
H 14.705124 22.793322 4.905896
C 13.311655 22.361764 2.245096
C 12.661243 21.421195 3.056993
C 11.629574 20.637718 2.582761
H 11.197611 20.014908 3.121524
C 11.272361 20.831154 1.262116
H 10.587901 20.316780 0.898939
C 11.910517 21.770532 0.460725
H 11.639155 21.873804 -0.423207
C 12.926514 22.545072 0.937958
H 13.345433 23.176620 0.397694
N 14.264870 23.029855 2.993962
N 13.242183 21.542936 4.299600
O 15.901085 15.052291 5.126804
H 16.452927 14.446164 5.131006
O 17.566582 16.179346 6.005933
C 14.836089 13.671624 13.117906
C 12.243894 10.273578 13.077386
C 11.721654 11.536078 12.901801
H 10.806924 11.645904 12.765234
C 12.554450 12.646054 12.928814
H 12.196920 13.492884 12.787745
C 13.904772 12.507431 13.161427
C 14.424607 11.248704 13.364026
H 15.331996 11.143446 13.535110
C 13.599940 10.144885 13.314502
H 13.962013 9.298452 13.442064
C 11.366508 9.041662 13.000849
H 10.435702 9.312354 12.994846
H 11.514643 8.494122 13.788734
C 12.580972 7.274718 11.696712
H 13.109213 6.996678 12.409560
C 11.715744 7.428236 9.748761
C 11.065332 8.368805 10.560657
C 10.033662 9.152282 10.086426
H 9.601700 9.775092 10.625189
C 9.676450 8.958846 8.765781
H 8.991990 9.473220 8.402603
C 10.314605 8.019468 7.964389
H 10.043244 7.916196 7.080458
C 11.330603 7.244928 8.441622
H 11.749521 6.613380 7.901359
N 12.668959 6.760145 10.497626
N 11.646272 8.247064 11.803264
O 14.305174 14.737709 12.630468
H 14.857016 15.343836 12.634670
O 15.970671 13.610654 13.509597
C -2.919823 3.741624 9.393087
C -0.327628 0.343578 9.433607
C 0.194612 1.606078 9.609193
H 1.109342 1.715904 9.745759
C -0.638184 2.716054 9.582179
H -0.280654 3.562884 9.723248
C -1.988505 2.577431 9.349566
C -2.508341 1.318704 9.146967
H -3.415730 1.213446 8.975883
C -1.683674 0.214885 9.196491
H -2.045746 -0.631548 9.068929
C 0.549758 -0.888338 9.510144
H 1.480564 -0.617646 9.516147
H 0.401623 -1.435878 8.722259
C -0.664706 -2.655282 10.814281
H -1.192947 -2.933322 10.101433
C 0.200522 -2.501764 12.762232
C 0.850934 -1.561195 11.950336
C 1.882604 -0.777718 12.424568
H 2.314566 -0.154908 11.885804
C 2.239816 -0.971154 13.745212
H 2.924276 -0.456780 14.108390
C 1.601661 -1.910532 14.546604
H 1.873022 -2.013804 15.430535
C 0.585663 -2.685072 14.069371
H 0.166745 -3.316620 14.609635
N -0.752692 -3.169855 12.013367
N 0.269995 -1.682936 10.707729
O -2.388908 4.807709 9.880525
H -2.940750 5.413836 9.876323
O -4.054405 3.680654 9.001396
O 7.327129 9.790781 5.645757
C 7.021360 7.461601 5.384630
C 7.773529 8.758260 5.131006
C 5.481156 5.154663 5.644256
C 6.819805 5.077805 5.374124
H 7.220914 4.242096 5.294586
C 7.599988 6.229486 5.216547
H 8.501514 6.160572 4.998941
C 4.916061 6.392735 5.795830
H 4.009544 6.472374 5.981921
C 5.698212 7.515024 5.668268
H 5.301455 8.347158 5.782324
C 4.602249 3.939430 5.818341
H 4.820030 3.503304 6.655750
H 3.674911 4.218264 5.858861
C 5.406901 1.795145 4.760325
H 5.768773 1.441836 5.540706
C 4.821556 2.042601 2.737337
C 4.376464 3.180579 3.400661
C 3.666873 4.195624 2.794365
H 3.363180 4.937196 3.264094
C 3.439409 4.039524 1.452709
H 2.972803 4.698876 0.991984
C 3.888182 2.917434 0.756369
H 3.709107 2.849910 -0.153075
C 4.584878 1.905964 1.376172
H 4.885868 1.163796 0.903441
N 5.467012 1.182862 3.613765
N 4.771944 2.991313 4.722806
O 8.857297 8.610899 4.580387
H 9.221796 9.340158 4.494695
O 7.780959 19.720781 1.857907
C 8.086729 17.391601 2.119035
C 7.334560 18.688260 2.372659
C 9.626933 15.084663 1.859408
C 8.288284 15.007805 2.129540
H 7.887175 14.172096 2.209079
C 7.508101 16.159486 2.287117
H 6.606574 16.090572 2.504723
C 10.192028 16.322735 1.707834
H 11.098544 16.402374 1.521743
C 9.409877 17.445024 1.835396
H 9.806634 18.277158 1.721341
C 10.505840 13.869430 1.685323
H 10.288059 13.433304 0.847914
H 11.433178 14.148264 1.644803
C 9.701188 11.725145 2.743340
H 9.339316 11.371836 1.962959
C 10.286533 11.972601 4.766328
C 10.731625 13.110579 4.103004
C 11.441216 14.125624 4.709300
H 11.744909 14.867196 4.239570
C 11.668680 13.969524 6.050955
H 12.135286 14.628876 6.511680
C 11.219907 12.847434 6.747295
H 11.398982 12.779910 7.656739
C 10.523211 11.835964 6.127492
H 10.222220 11.093796 6.600223
N 9.641076 11.112862 3.889900
N 10.336145 12.921313 2.780858
O 6.250792 18.540899 2.923278
H 5.886292 19.270158 3.008969
O 6.185048 10.069219 9.361572
C 6.490818 12.398399 9.622699
C 5.738649 11.101740 9.876323
C 8.031022 14.705337 9.363072
C 6.692372 14.782195 9.633204
H 6.291264 15.617904 9.712743
C 5.912189 13.630514 9.790781
H 5.010663 13.699428 10.008388
C 8.596117 13.467265 9.211498
H 9.502633 13.387626 9.025408
C 7.813966 12.344976 9.339061
H 8.210723 11.512842 9.225005
C 8.909929 15.920570 9.188987
H 8.692148 16.356696 8.351578
H 9.837267 15.641736 9.148468
C 8.105276 18.064855 10.247004
H 7.743405 18.418164 9.466623
C 8.690622 17.817399 12.269992
C 9.135713 16.679421 11.606668
C 9.845304 15.664376 12.212964
H 10.148997 14.922804 11.743235
C 10.072768 15.820476 13.554619
H 10.539374 15.161124 14.015344
C 9.623996 16.942566 14.250959
H 9.803070 17.010090 15.160404
C 8.927300 17.954036 13.631157
H 8.626309 18.696204 14.103888
N 8.045165 18.677138 11.393564
N 8.740234 16.868687 10.284522
O 4.654880 11.249101 10.426942
H 4.290381 10.519842 10.512634
O 5.731218 0.139219 13.149421
C 5.425448 2.468399 12.888294
C 6.177617 1.171740 12.634670
C 3.885244 4.775337 13.147921
C 5.223894 4.852195 12.877789
H 5.625002 5.687904 12.798250
C 6.004077 3.700514 12.720212
H 6.905603 3.769428 12.502606
C 3.320149 3.537265 13.299495
H 2.413633 3.457626 13.485586
C 4.102301 2.414976 13.171932
H 3.705543 1.582842 13.285988
C 3.006337 5.990570 13.322006
H 3.224119 6.426696 14.159415
H 2.079000 5.711736 13.362526
C 3.810990 8.134855 12.263989
H 4.172861 8.488164 13.044370
C 3.225644 7.887399 10.241001
C 2.780553 6.749421 10.904325
C 2.070962 5.734376 10.298029
H 1.767269 4.992804 10.767758
C 1.843498 5.890476 8.956374
H 1.376892 5.231124 8.495649
C 2.292270 7.012566 8.260034
H 2.113196 7.080090 7.350590
C 2.988967 8.024036 8.879836
H 3.289957 8.766204 8.407106
N 3.871101 8.747138 11.117429
N 3.176032 6.938687 12.226471
O 7.261386 1.319101 12.084051
H 7.625885 0.589842 11.998359
C 8.342246 5.369945 1.373171
C 7.046037 5.409268 1.812885
H 6.607063 4.613478 2.015484
C 6.374037 6.616359 1.964459
H 5.492343 6.625296 2.261604
C 7.019566 7.808158 1.670316
C 8.300294 7.763671 1.185579
H 8.732044 8.555688 0.961970
C 8.960847 6.562737 1.025001
H 9.824358 6.551814 0.679832
C 9.102001 4.051440 1.311641
H 8.593752 3.407976 0.795388
H 9.954521 4.188474 0.868924
C 8.669722 2.522021 3.265595
H 8.019350 2.013804 2.836385
C 10.003055 3.274914 4.748319
C 10.213183 4.033963 3.603260
C 11.164885 5.027559 3.526722
H 11.303495 5.519094 2.749343
C 11.898214 5.247012 4.673282
H 12.548957 5.910336 4.668780
C 11.698821 4.518150 5.822844
H 12.219083 4.698876 6.573210
C 10.748321 3.525150 5.885874
H 10.612094 3.038580 6.667756
C 6.290123 9.072247 1.958456
N 9.329493 3.527732 2.659449
O 7.030916 10.149652 1.753606
H 6.591136 10.819728 1.925440
O 5.153075 9.108988 2.358252
N 9.020859 2.319052 4.512704
C 6.765843 15.299945 6.130494
C 8.062051 15.339268 5.690779
H 8.501026 14.543478 5.488180
C 8.734052 16.546359 5.539205
H 9.615746 16.555296 5.242060
C 8.088523 17.738158 5.833349
C 6.807795 17.693671 6.318085
H 6.376045 18.485688 6.541695
C 6.147242 16.492737 6.478664
H 5.283731 16.481814 6.823832
C 6.006088 13.981440 6.192024
H 6.514337 13.337976 6.708276
H 5.153567 14.118474 6.634740
C 6.438367 12.452021 4.238070
H 7.088738 11.943804 4.667279
C 5.105034 13.204914 2.755346
C 4.894906 13.963963 3.900405
C 3.943204 14.957559 3.976942
H 3.804594 15.449094 4.754322
C 3.209875 15.177012 2.830382
H 2.559132 15.840336 2.834884
C 3.409268 14.448150 1.680821
H 2.889006 14.628876 0.930454
C 4.359768 13.455150 1.617790
H 4.495995 12.968580 0.835908
C 8.817966 19.002247 5.545208
N 5.778596 13.457732 4.844216
O 8.077172 20.079652 5.750058
H 8.516953 20.749728 5.578224
O 9.955014 19.038988 5.145413
N 6.087230 12.249052 2.990961
C 5.169932 14.490055 13.634158
C 6.466140 14.450732 13.194443
H 6.905114 15.246522 12.991845
C 7.138141 13.243641 13.042869
H 8.019835 13.234704 12.745724
C 6.492611 12.051842 13.337013
C 5.211883 12.096329 13.821750
H 4.780133 11.304312 14.045359
C 4.551331 13.297263 13.982328
H 3.687820 13.308186 14.327497
C 4.410176 15.808560 13.695688
H 4.918426 16.452024 14.211940
H 3.557656 15.671526 14.138404
C 4.842456 17.337979 11.741734
H 5.492827 17.846196 12.170944
C 3.509123 16.585086 10.259010
C 3.298995 15.826037 11.404069
C 2.347293 14.832441 11.480607
H 2.208683 14.340906 12.257986
C 1.613964 14.612988 10.334047
H 0.963221 13.949664 10.338549
C 1.813357 15.341850 9.184485
H 1.293095 15.161124 8.434119
C 2.763857 16.334850 9.121454
H 2.900083 16.821420 8.339573
C 7.222054 10.787753 13.048872
N 4.182685 16.332268 12.347880
O 6.481261 9.710348 13.253722
H 6.921042 9.040272 13.081889
O 8.359102 10.751012 12.649077
N 4.491318 17.540948 10.494625
C 6.746335 4.560055 8.876835
C 5.450126 4.520732 9.316550
H 5.011152 5.316522 9.519149
C 4.778126 3.313641 9.468124
H 3.896431 3.304704 9.765269
C 5.423655 2.121842 9.173980
C 6.704383 2.166329 8.689243
H 7.136133 1.374312 8.465634
C 7.364935 3.367263 8.528665
H 8.228446 3.378186 8.183496
C 7.506090 5.878560 8.815305
H 6.997841 6.522024 8.299053
H 8.358610 5.741526 8.372589
C 7.073811 7.407979 10.769259
H 6.423439 7.916196 10.340050
C 8.407143 6.655086 12.251983
C 8.617271 5.896037 11.106924
C 9.568974 4.902441 11.030387
H 9.707584 4.410906 10.253007
C 10.302302 4.682988 12.176947
H 10.953045 4.019664 12.172444
C 10.102910 5.411850 13.326508
H 10.623171 5.231124 14.076874
C 9.152409 6.404850 13.389539
H 9.016183 6.891420 14.171421
C 4.694212 0.857753 9.462121
N 7.733581 6.402268 10.163113
O 5.435005 -0.219652 9.257271
H 4.995224 -0.889728 9.429105
O 3.557164 0.821012 9.861916
N 7.424948 7.610948 12.016368
