285
Lattice="10.480400 0.000000 0.000000 -5.240200 9.076293 0.000000 0.000000 0.000000 31.811600"
Pd 3.145378 4.235180 3.798305
C 0.476858 2.928012 3.916008
N 1.266032 3.988123 4.606002
C 0.590047 5.313262 4.455851
C 0.938520 5.913205 3.121036
N 2.408920 5.985815 2.995380
C 2.914075 7.194777 3.686964
O 5.033736 4.768684 3.288047
O 3.632507 2.325346 4.303155
C 1.373980 3.581505 6.025753
C 2.056254 4.583528 6.925385
C 3.427615 4.640708 6.999824
C 4.054867 5.587366 7.780799
C 3.296086 6.504071 8.504831
C 1.916341 6.435999 8.459023
C 1.305334 5.497510 7.678048
C 2.835996 6.097453 1.560041
C 2.291015 5.001037 0.656910
C 1.140792 5.205254 -0.083665
C 0.619916 4.190524 -0.875137
C 1.251360 2.980655 -0.901859
C 2.406300 2.768269 -0.191506
C 2.940276 3.789352 0.599967
C 4.427969 1.755355 3.370121
C 5.775748 2.076656 3.295364
C 6.594792 1.534801 2.251307
C 7.965104 1.873347 2.104337
C 8.722837 1.357813 1.084776
C 8.135935 0.531871 0.139653
C 6.838985 0.186064 0.210593
C 6.014702 0.653493 1.296641
C 4.672162 0.272289 1.475740
C 3.878796 0.771485 2.467308
C 2.441933 0.361236 2.595827
C 5.945531 4.363882 4.232533
C 6.336450 3.036928 4.284068
C 7.205799 2.593097 5.335123
C 7.594098 1.238006 5.482729
C 8.428338 0.838649 6.514061
C 8.850698 1.766247 7.456957
C 8.486504 3.059618 7.367567
C 7.681085 3.543385 6.301878
C 7.343616 4.895752 6.125960
C 6.506756 5.315985 5.129620
C 6.155663 6.770007 5.002692
H 0.917035 2.078471 3.944638
H -0.377294 2.868108 4.358189
H 0.351093 3.185779 2.990290
H 0.875113 5.908667 5.153479
H -0.361574 5.182563 4.517247
H 0.539741 6.779991 3.022102
H 0.607863 5.318707 2.449493
H 3.862027 7.270110 3.594711
H 2.483855 7.968985 3.308406
H 2.709183 7.124890 4.612682
H 0.476858 3.458067 6.330508
H 1.849791 2.750117 6.076016
H 3.940630 3.975416 6.553190
H 5.014871 5.636378 7.793842
H 3.731022 7.170271 9.034494
H 1.378173 7.070432 8.939060
H 0.351093 5.436699 7.666596
H 3.799145 6.090192 1.526957
H 2.510056 6.925211 1.208841
H 0.696947 6.053887 -0.063623
H -0.157206 4.338468 -1.399710
H 0.864633 2.259997 -1.399710
H 2.845429 1.915098 -0.222681
H 3.762464 3.648670 1.081594
H 8.368599 2.441523 2.767609
H 9.641968 1.615580 1.017971
H 8.677771 0.163373 -0.572609
H 6.434966 -0.344899 -0.477174
H 4.286484 -0.381204 0.890725
H 2.064639 0.835019 3.340218
H 1.949354 0.562730 1.813261
H 2.400012 -0.580883 2.767609
H 7.304839 0.599035 4.835363
H 8.683011 -0.081687 6.616813
H 9.395679 1.479436 8.175581
H 8.808776 3.675899 8.016523
H 7.676893 5.545615 6.744059
H 5.586053 6.916135 4.262754
H 5.701338 7.025051 5.789711
H 6.948505 7.297339 4.898986
Pd 5.239938 0.606387 25.006144
C 7.706238 -1.051035 25.124802
N 6.393568 -0.897645 25.813841
C 5.583957 -2.145636 25.663690
C 4.890155 -2.143820 24.328875
N 4.092072 -0.906722 24.203220
C 2.792503 -1.073725 24.895758
O 3.833730 1.975001 24.495886
O 6.650338 1.983170 25.510995
C 6.691735 -0.600851 27.233593
C 5.482821 -0.510995 28.133225
C 4.747621 0.648047 28.207664
C 3.614166 0.717935 28.988639
C 3.199666 -0.397542 29.712671
C 3.948491 -1.558399 29.666862
C 5.066749 -1.618303 28.885887
C 3.781852 -0.592682 22.767880
C 5.003867 -0.516441 21.864749
C 5.402122 -1.614672 21.124175
C 6.541342 -1.558399 20.332702
C 7.273398 -0.406618 20.305981
C 6.879859 0.699782 21.016334
C 5.728587 0.651678 21.807806
C 6.746233 2.957056 24.577960
C 5.794089 3.963617 24.503203
C 5.853827 4.943857 23.459146
C 4.875482 5.961309 23.312177
C 4.943081 6.875292 22.292615
C 5.951819 6.779991 21.347492
C 6.899771 5.829703 21.418432
C 6.907108 4.882138 22.504480
C 7.908510 3.910067 22.683579
C 7.872876 2.973393 23.675147
C 8.946593 1.934158 23.804620
C 3.728402 2.967040 25.440373
C 4.682119 3.969063 25.491908
C 4.631813 4.943857 26.542963
C 5.611206 5.957678 26.690569
C 5.539939 6.879830 27.721901
C 4.525437 6.781806 28.664797
C 3.587441 5.819719 28.575406
C 3.571196 4.880323 27.509717
C 2.568746 3.911882 27.333799
C 2.623244 2.977024 26.337460
C 1.539571 1.945957 26.210532
H 8.221874 -0.245060 25.152382
H 8.185192 -1.760801 25.565933
H 7.545888 -1.288834 24.198034
H 4.925788 -2.196463 26.361223
H 6.172956 -2.904414 25.724991
H 4.338886 -2.922566 24.229846
H 5.570333 -2.132929 23.657237
H 2.253286 -0.290441 24.802455
H 2.337129 -1.833411 24.516150
H 2.955473 -1.216223 25.820426
H 7.247197 -1.316062 27.538252
H 7.173834 0.226907 27.283760
H 5.067273 1.424978 27.760934
H 3.091718 1.524817 29.001586
H 2.405252 -0.353975 30.242238
H 3.668140 -2.341684 30.146804
H 5.596534 -2.414294 28.874340
H 3.306566 0.245060 22.734701
H 3.227963 -1.288834 22.416585
H 4.889107 -2.423370 21.144121
H 6.801780 -2.305378 19.808034
H 8.090869 -0.381204 19.808034
H 7.399162 1.506665 20.985063
H 5.439328 1.434054 22.289338
H 4.181680 6.026658 23.975353
H 4.260283 7.542399 22.225715
H 6.000029 7.433484 20.635135
H 7.561609 5.745293 20.730570
H 8.667291 3.902806 22.098469
H 8.724933 1.370520 24.547962
H 9.018384 1.406825 23.021005
H 9.783453 2.368912 23.975353
H 6.309201 6.026658 26.043107
H 6.209637 7.560552 27.824557
H 4.501332 7.397179 29.383325
H 2.892590 5.790675 29.224267
H 1.839310 3.875577 27.951803
H 1.697825 1.379596 25.470498
H 1.545859 1.424978 26.997455
H 0.686466 2.368912 26.106730
Pd 7.335284 4.234726 14.402066
C 7.537504 7.199315 14.518814
N 8.061000 5.985815 15.209762
C 9.546596 5.908667 15.059611
C 9.891926 5.306908 13.724797
N 9.219608 3.997199 13.599141
C 10.014022 2.955241 14.289771
O 6.853134 2.332607 13.891808
O 5.437756 4.767777 14.906916
C 7.654884 6.095638 16.629514
C 8.181524 5.003760 17.529146
C 7.545364 3.787537 17.603585
C 8.051567 2.770992 18.384560
C 9.224848 2.969763 19.108592
C 9.855768 4.198693 19.062783
C 9.348517 5.197085 18.281808
C 9.102751 3.571521 12.163801
C 8.425718 4.591696 11.260670
C 9.177686 5.485711 10.520096
C 8.559343 6.444168 9.728624
C 7.195843 6.502256 9.701902
C 6.434442 5.608241 10.412255
C 7.051737 4.635263 11.203727
C 4.546398 4.363882 13.973882
C 4.150762 3.036020 13.899124
C 3.271981 2.597635 12.855068
C 2.880014 1.241637 12.708098
C 2.054682 0.843188 11.688536
C 1.632846 1.764431 10.743414
C 1.981844 3.060526 10.814353
C 2.798791 3.540662 11.900401
C 3.139928 4.893937 12.079501
C 3.968927 5.331414 13.071068
C 4.332073 6.780898 13.198633
C 6.046667 1.745371 14.836294
C 4.702031 2.070302 14.887829
C 3.882988 1.539339 15.938884
C 2.515296 1.880608 16.086490
C 1.752323 1.357813 17.117822
C 2.344465 0.528240 18.060718
C 3.646655 0.196956 17.971327
C 4.468319 0.652585 16.905639
C 5.808238 0.268658 16.729720
C 6.590600 0.783284 15.733381
C 8.025366 0.360329 15.606453
H 6.581691 7.242882 14.548494
H 7.912702 7.968985 14.962045
H 7.823619 7.179347 13.594146
H 9.919699 5.364089 15.757335
H 9.909218 6.798143 15.121103
H 10.841974 5.218868 13.625958
H 9.542404 5.890514 13.053349
H 9.605287 2.096624 14.198567
H 10.899616 2.940719 13.912262
H 10.055944 3.167626 15.216538
H 7.996545 6.934288 16.934364
H 6.696976 6.099269 16.679872
H 6.712696 3.675899 17.157046
H 7.614011 1.915098 18.397698
H 9.584326 2.259997 19.638350
H 10.674287 4.347544 19.542916
H 9.772973 6.053887 18.270452
H 8.614889 2.741040 12.130813
H 9.982581 3.439915 11.812697
H 10.134547 5.445776 10.540233
H 9.076026 7.043203 9.204146
H 6.765098 7.197500 9.204146
H 5.476009 5.654530 10.381175
H 6.518809 3.993569 11.685450
H 3.170321 0.608112 13.371465
H 1.818349 -0.081687 11.621827
H 1.042800 1.479436 10.031247
H 1.724026 3.675899 10.126682
H 2.766826 5.554691 11.494581
H 4.931028 6.870754 13.944074
H 4.752861 7.106737 12.417117
H 3.537135 7.288263 13.371465
H 2.106560 2.450599 15.439219
H 0.827952 1.597428 17.220669
H 1.823590 0.199678 18.779437
H 4.019233 -0.390281 18.620379
H 6.204397 -0.344899 17.347915
H 8.436722 0.780561 14.866610
H 8.473403 0.626264 16.393567
H 8.085629 -0.589959 15.502842
C 5.887365 0.683445 11.347198
Cl 6.024868 -0.906540 12.073775
Cl 7.000383 0.935766 10.037514
H 6.041951 1.352368 12.024785
H 4.999151 0.780561 11.006814
C 6.944837 4.756885 0.744391
Cl 8.253053 5.670958 1.470014
Cl 6.169811 5.594627 -0.566246
H 6.288240 4.556299 1.420929
H 7.304839 3.939111 0.402958
C 2.888398 3.635963 21.950004
Cl 1.442679 4.311874 22.677535
Cl 2.550405 2.545900 20.641275
H 3.390409 3.167626 22.628641
H 3.416610 4.356620 21.610670
C 4.577839 0.682537 6.839494
Cl 3.481065 0.943027 8.164129
Cl 4.455794 -0.906812 6.128187
H 5.481249 0.798714 7.157610
H 4.407008 1.334215 6.171450
C 7.600386 3.623256 28.047333
Cl 7.923182 2.543177 29.371968
Cl 9.037825 4.312237 27.336026
H 7.048069 4.347544 28.365354
H 7.121432 3.149474 27.379194
C 3.542375 4.770499 17.443255
Cl 4.316353 5.590089 18.767890
Cl 2.226980 5.670868 16.731947
H 3.191282 3.930035 17.761466
H 4.192160 4.592604 16.775306
