264
Lattice="16.699600 0.000000 0.000000 0.000000 8.944300 0.000000 -12.619148 0.000000 22.624720"
C 7.949556 8.732320 8.669793
C 7.039496 10.695594 9.253510
H 6.803511 11.451387 9.778404
C 6.705859 10.479142 7.968426
H 6.176708 11.040844 7.414121
C 8.366057 9.442498 11.006926
H 8.450356 8.488141 11.215074
H 7.779667 9.870035 11.663043
H 9.251839 9.861985 11.038601
C 7.122396 8.655399 6.296459
H 7.551614 7.763652 6.287410
H 7.561127 9.216207 5.608668
C 5.677941 8.519446 5.981976
H 5.142957 7.954166 6.524969
C 5.113940 9.153597 4.975176
H 5.633524 9.722454 4.420870
H 4.186160 9.041793 4.803228
C 9.463439 4.116167 8.054400
H 8.738684 4.242281 7.452583
C 10.072748 2.861282 8.108700
H 9.776129 2.147526 7.556656
C 11.127800 2.689551 8.995589
H 11.558347 1.845209 9.067988
C 11.546235 3.744978 9.769354
H 12.267612 3.648380 10.380221
C 10.875923 4.974820 9.626818
H 11.170615 5.718091 10.140399
N 7.800930 9.601706 9.669805
N 7.288886 9.272556 7.617743
N 9.847326 5.135817 8.803278
I 10.982787 8.035470 7.599870
I 6.730482 5.955830 9.720711
Pt 8.883766 6.991580 8.711648
C 2.440470 4.260170 2.642567
C 3.350530 6.223444 2.058849
H 3.586515 6.979237 1.533956
C 3.684167 6.006992 3.343934
H 4.213318 6.568694 3.898239
C 2.023969 4.970348 0.305434
H 1.939670 4.015991 0.097286
H 2.610359 5.397885 -0.350683
H 1.138187 5.389835 0.273759
C 3.267630 4.183249 5.015900
H 2.838412 3.291502 5.024950
H 2.828899 4.744057 5.703692
C 4.712085 4.047296 5.330384
H 5.247069 3.482016 4.787391
C 5.276086 4.681447 6.337184
H 4.756502 5.250304 6.891490
H 6.203866 4.569643 6.509132
C 0.926587 -0.355983 3.257960
H 1.651342 -0.229869 3.859777
C 0.317278 -1.610868 3.203660
H 0.613897 -2.324624 3.755703
C -0.737774 -1.782599 2.316771
H -1.168321 -2.626941 2.244372
C -1.156209 -0.727172 1.543006
H -1.877586 -0.823770 0.932138
C -0.485897 0.502670 1.685542
H -0.780589 1.245941 1.171960
N 2.589096 5.129556 1.642555
N 3.101139 4.800406 3.694617
N 0.542700 0.663667 2.509081
I -0.592761 3.563320 3.712490
I 3.659544 1.483680 1.591649
Pt 1.506260 2.519430 2.600712
C -3.869104 0.211980 13.954927
C -2.959044 -1.751294 13.371209
H -2.723059 -2.507087 12.846316
C -2.625407 -1.534842 14.656293
H -2.096256 -2.096544 15.210599
C -4.285605 -0.498198 11.617794
H -4.369904 0.456159 11.409646
H -3.699215 -0.925735 10.961677
H -5.171387 -0.917685 11.586119
C -3.041944 0.288901 16.328260
H -3.471162 1.180648 16.337310
H -3.480675 -0.271907 17.016052
C -1.597489 0.424854 16.642744
H -1.062505 0.990134 16.099750
C -1.033488 -0.209297 17.649544
H -1.553073 -0.778154 18.203849
H -0.105708 -0.097493 17.821492
C -5.382987 4.828133 14.570319
H -4.658232 4.702019 15.172137
C -5.992296 6.083018 14.516020
H -5.695677 6.796774 15.068063
C -7.047348 6.254749 13.629131
H -7.477895 7.099091 13.556732
C -7.465783 5.199322 12.855366
H -8.187160 5.295920 12.244498
C -6.795471 3.969480 12.997901
H -7.090163 3.226209 12.484320
N -3.720478 -0.657406 12.954914
N -3.208435 -0.328256 15.006977
N -5.766874 3.808483 13.821441
I -6.902335 0.908830 15.024850
I -2.650030 2.988470 12.904009
Pt -4.803314 1.952720 13.913071
C 1.639982 4.684130 19.982152
C 0.729922 2.720856 20.565870
H 0.493937 1.965063 21.090764
C 0.396285 2.937308 19.280786
H -0.132866 2.375606 18.726480
C 2.056483 3.973952 22.319286
H 2.140782 4.928309 22.527433
H 1.470093 3.546415 22.975403
H 2.942265 3.554465 22.350961
C 0.812822 4.761051 17.608819
H 1.242040 5.652798 17.599769
H 1.251553 4.200243 16.921028
C -0.631633 4.897004 17.294336
H -1.166617 5.462284 17.837329
C -1.195634 4.262853 16.287536
H -0.676050 3.693996 15.733230
H -2.123414 4.374657 16.115588
C 3.153865 9.300283 19.366760
H 2.429110 9.174169 18.764942
C 3.763174 10.555168 19.421059
H 3.466555 11.268924 18.869016
C 4.818226 10.726899 20.307948
H 5.248773 11.571241 20.380347
C 5.236661 9.671472 21.081714
H 5.958038 9.768070 21.692581
C 4.566349 8.441630 20.939178
H 4.861041 7.698359 21.452759
N 1.491356 3.814744 20.982165
N 0.979312 4.143894 18.930103
N 3.537752 8.280633 20.115638
I 4.673213 5.380980 18.912229
I 0.420908 7.460620 21.033071
Pt 2.574192 6.424870 20.024008
C 11.061362 3.869304 2.608630
C 11.923666 5.786068 1.963826
H 12.109553 6.556172 1.438932
C 12.458930 5.502533 3.153886
H 13.096115 6.021303 3.631268
C 10.308709 4.687708 0.389145
H 9.949637 3.780756 0.296384
H 10.896368 4.885377 -0.371045
H 9.570511 5.331697 0.407245
C 12.283464 3.592031 4.782866
H 13.151594 3.138555 4.642592
H 11.606707 2.897059 4.984226
C 12.394709 4.510610 5.936726
H 11.660690 5.069629 6.153924
C 13.467179 4.573221 6.651668
H 14.211180 4.019568 6.443520
H 13.512956 5.172489 7.386971
C 9.501484 -0.699444 3.441220
H 10.311490 -0.578696 3.923126
C 8.869083 -1.932863 3.518144
H 9.235545 -2.636780 4.040775
C 7.715488 -2.108172 2.834877
H 7.257322 -2.939991 2.877864
C 7.217190 -1.096571 2.090524
H 6.416425 -1.220003 1.595043
C 7.887849 0.146687 2.049800
H 7.526359 0.859547 1.536218
N 11.070452 4.785201 1.631242
N 11.901171 4.299525 3.552081
N 9.026044 0.330939 2.721754
I 11.879058 1.037897 1.188703
I 8.262159 3.208410 4.192813
Pt 10.057353 2.145022 2.655690
C -0.671336 8.341454 8.703730
C -1.533640 10.258218 9.348534
H -1.719527 11.028322 9.873428
C -2.068904 9.974683 8.158474
H -2.706089 10.493453 7.681092
C 0.081317 9.159858 10.923215
H 0.440389 8.252906 11.015976
H -0.506342 9.357527 11.683405
H 0.819515 9.803847 10.905115
C -1.893438 8.064181 6.529494
H -2.761568 7.610705 6.669767
H -1.216681 7.369209 6.328134
C -2.004683 8.982760 5.375633
H -1.270664 9.541779 5.158436
C -3.077153 9.045371 4.660692
H -3.821154 8.491718 4.868840
H -3.122930 9.644639 3.925389
C 0.888542 3.772706 7.871140
H 0.078536 3.893454 7.389233
C 1.520943 2.539287 7.794216
H 1.154481 1.835370 7.271585
C 2.674538 2.363978 8.477482
H 3.132704 1.532159 8.434495
C 3.172836 3.375579 9.221836
H 3.973601 3.252147 9.717317
C 2.502177 4.618837 9.262560
H 2.863667 5.331697 9.776141
N -0.680426 9.257351 9.681118
N -1.511145 8.771675 7.760279
N 1.363982 4.803089 8.590606
I -1.489032 5.510047 10.123657
I 2.127867 7.680560 7.119547
Pt 0.332673 6.617172 8.656670
C -6.980910 5.074996 20.016089
C -7.843214 3.158232 20.660894
H -8.029101 2.388128 21.185787
C -8.378478 3.441767 19.470834
H -9.015663 2.922997 18.993452
C -6.228257 4.256592 22.235574
H -5.869185 5.163544 22.328336
H -6.815916 4.058923 22.995765
H -5.490059 3.612603 22.217475
C -8.203012 5.352269 17.841854
H -9.071142 5.805745 17.982127
H -7.526255 6.047241 17.640494
C -8.314257 4.433690 16.687993
H -7.580238 3.874671 16.470796
C -9.386727 4.371079 15.973052
H -10.130728 4.924732 16.181199
H -9.432504 3.771811 15.237749
C -5.421032 9.643744 19.183500
H -6.231038 9.522996 18.701593
C -4.788631 10.877163 19.106576
H -5.155093 11.581080 18.583945
C -3.635036 11.052472 19.789842
H -3.176870 11.884291 19.746855
C -3.136738 10.040871 20.534196
H -2.335973 10.164303 21.029677
C -3.807397 8.797613 20.574920
H -3.445907 8.084753 21.088501
N -6.990000 4.159100 20.993477
N -7.820719 4.644775 19.072639
N -4.945592 8.613361 19.902966
I -7.798606 7.906403 21.436017
I -4.181707 5.735890 18.431907
Pt -5.976901 6.799278 19.969030
C 4.751788 0.602846 13.920990
C 5.614092 -1.313918 13.276185
H 5.799979 -2.084022 12.751292
C 6.149356 -1.030383 14.466246
H 6.786541 -1.549153 14.943627
C 3.999135 -0.215558 11.701505
H 3.640063 0.691394 11.608744
H 4.586794 -0.413227 10.941314
H 3.260937 -0.859547 11.719605
C 5.973890 0.880119 16.095226
H 6.842020 1.333595 15.954952
H 5.297133 1.575091 16.296586
C 6.085135 -0.038460 17.249086
H 5.351116 -0.597479 17.466284
C 7.157605 -0.101071 17.964027
H 7.901606 0.452582 17.755880
H 7.203382 -0.700339 18.699331
C 3.191910 5.171594 14.753580
H 4.001916 5.050846 15.235486
C 2.559509 6.405013 14.830504
H 2.925971 7.108930 15.353135
C 1.405914 6.580322 14.147237
H 0.947748 7.412141 14.190224
C 0.907616 5.568721 13.402884
H 0.106851 5.692153 12.907403
C 1.578275 4.325463 13.362159
H 1.216785 3.612603 12.848578
N 4.760878 -0.313050 12.943602
N 5.591597 0.172625 14.864441
N 2.716470 4.141211 14.034114
I 5.569484 3.434253 12.501063
I 1.952585 1.263740 15.505173
Pt 3.747779 2.327128 13.968049
