84
Lattice="6.804800 0.000000 0.000000 0.000000 8.607100 0.000000 -2.596796 0.000000 15.609878"
H -2.795404 0.800460 16.640130
S 0.220078 2.531778 16.258468
N -1.054092 0.722910 14.873248
N -2.139145 1.334961 16.830726
C -1.123178 1.433082 15.959383
C 0.127456 0.997563 14.192813
C -2.986795 3.349023 17.884705
C 0.951696 1.962419 14.788954
C -2.257368 2.090665 18.048609
H -1.358086 2.287767 18.389997
H -2.718298 1.540671 18.720926
C 2.167910 2.333385 14.219194
H 2.675596 2.935021 14.595236
C 0.523741 0.407116 13.000999
H -0.012047 -0.226367 12.589366
C 2.539782 1.725724 13.051419
H 3.373161 1.957255 12.651806
C 1.733940 0.779803 12.434673
H 2.006530 0.394205 11.638725
C -3.590526 4.328511 17.734226
H -4.053796 5.086796 17.618869
H 5.705010 5.104010 6.774687
S 2.689528 6.835328 7.156348
N 3.963697 5.026460 8.541569
N 5.048751 5.638511 6.584090
C 4.032784 5.736632 7.455434
C 2.782149 5.301113 9.222004
C 5.896401 7.652573 5.530111
C 1.957910 6.265969 8.625862
C 5.166974 6.394215 5.366208
H 4.267691 6.591317 5.024820
H 5.627904 5.844221 4.693890
C 0.741696 6.636935 9.195623
H 0.234010 7.238571 8.819581
C 2.385864 4.710666 10.413818
H 2.921653 4.077183 10.825450
C 0.369824 6.029274 10.363398
H -0.463555 6.260805 10.763011
C 1.175665 5.083353 10.980144
H 0.903076 4.697755 11.776092
C 6.500132 8.632061 5.680591
H 6.963402 9.390346 5.795948
H 7.003408 7.806640 -1.030252
S 3.987926 6.075322 -0.648590
N 5.262095 7.884190 0.736630
N 6.347149 7.272139 -1.220849
C 5.331182 7.174018 -0.349505
C 4.080547 7.609537 1.417065
C 7.194799 5.258077 -2.274827
C 3.256308 6.644681 0.820923
C 6.465372 6.516435 -2.438731
H 5.566089 6.319333 -2.780119
H 6.926302 7.066429 -3.111049
C 2.040094 6.273715 1.390684
H 1.532408 5.672079 1.014642
C 3.684262 8.199984 2.608879
H 4.220051 8.833467 3.020511
C 1.668222 6.881376 2.558459
H 0.834843 6.649845 2.958072
C 2.474063 7.827297 3.175205
H 2.201474 8.212895 3.971153
C 7.798530 4.278589 -2.124348
H 8.261800 3.520304 -2.008991
H -1.497006 3.503090 8.835191
S 1.518476 1.771772 8.453529
N 0.244307 3.580640 7.068309
N -0.840747 2.968589 9.025787
C 0.175220 2.870468 8.154444
C 1.425854 3.305987 6.387874
C -1.688397 0.954527 10.079766
C 2.250094 2.341131 6.984015
C -0.958970 2.212885 10.243670
H -0.059687 2.015783 10.585058
H -1.419900 2.762879 10.915988
C 3.466308 1.970165 6.414255
H 3.973994 1.368529 6.790297
C 1.822140 3.896434 5.196060
H 1.286351 4.529917 4.784428
C 3.838180 2.577826 5.246480
H 4.671559 2.346295 4.846867
C 3.032338 3.523747 4.629734
H 3.304928 3.909345 3.833786
C -2.292128 -0.024961 9.929287
H -2.755398 -0.783246 9.813930
