212
Lattice="13.113400 0.000000 0.000000 -5.248168 12.546149 0.000000 -1.818687 -4.496041 13.530858"
O 2.264144 11.637397 4.499687
O 2.240045 9.326446 0.359786
N -3.980167 6.806442 1.584599
N 1.660935 8.557104 10.135289
N 2.530989 4.755510 0.675054
N 4.991989 7.598272 2.777615
C 3.119442 13.633302 -0.112983
H 3.325432 14.111231 -0.907921
C 2.932236 12.257953 -0.172518
H 2.990275 11.788052 -0.995871
C 2.660816 11.602838 1.002366
C 2.357791 10.168245 1.219672
C 2.194356 9.993925 2.696159
C 1.863653 8.856417 3.317496
C 1.531509 7.607671 2.540148
C 0.126390 7.356823 2.291857
C -0.786542 8.430994 2.318377
H -0.462258 9.300930 2.520799
C -2.121311 8.268978 2.064403
H -2.695777 9.026422 2.059397
C -2.652710 6.984792 1.808670
C -4.530686 5.464272 1.434271
H -4.145353 5.040859 0.638656
H -5.503830 5.519425 1.335496
H -4.312014 4.930811 2.227179
C 1.704379 8.526725 8.991661
C 1.756988 8.522981 7.552654
C 0.621452 8.203920 6.817929
H -0.177943 7.938896 7.257952
C 0.670351 8.277891 5.434263
H -0.090040 8.030343 4.921173
C 1.820165 8.710289 4.795607
C 2.964691 8.988607 5.541563
H 3.764064 9.255627 5.103840
C 2.934275 8.876528 6.913051
H 3.719832 9.041699 7.420322
C -4.871559 7.936328 1.396249
H -4.907243 8.464800 2.220414
H -5.769062 7.610329 1.178538
H -4.538869 8.495504 0.663012
C -1.750180 5.898630 1.814082
H -2.078795 5.020980 1.657530
C -0.409497 6.081379 2.039642
H 0.170157 5.329020 2.025569
C 2.601346 6.844022 2.183610
C 2.532869 5.673260 1.358092
C 3.928776 7.260367 2.508892
C 2.349296 11.348050 3.322502
C 2.595466 12.287265 2.217302
C 3.009695 14.323348 1.094105
H 3.111861 15.267778 1.101412
C 2.757023 13.664579 2.275078
H 2.694822 14.134937 3.098566
O 3.782402 -3.587290 9.031171
O 3.806500 -1.276338 13.171072
N 10.026712 1.243666 11.946259
N 4.385611 -0.506996 3.395569
N 3.515557 3.294598 12.855803
N 1.054556 0.451836 10.753243
C 2.927103 -5.583194 13.643841
H 2.721113 -6.061123 14.438778
C 3.114309 -4.207845 13.703376
H 3.056270 -3.737944 14.526729
C 3.385729 -3.552730 12.528492
C 3.688754 -2.118137 12.311186
C 3.852189 -1.943818 10.834699
C 4.182892 -0.806310 10.213362
C 4.515036 0.442436 10.990710
C 5.920155 0.693285 11.239001
C 6.833087 -0.380886 11.212481
H 6.508803 -1.250823 11.010059
C 8.167856 -0.218871 11.466455
H 8.742322 -0.976314 11.471461
C 8.699255 1.065315 11.722188
C 10.577231 2.585835 12.096587
H 10.191898 3.009248 12.892201
H 11.550375 2.530682 12.195362
H 10.358559 3.119297 11.303679
C 4.342166 -0.476617 4.539197
C 4.289557 -0.472874 5.978204
C 5.425093 -0.153812 6.712929
H 6.224488 0.111211 6.272906
C 5.376194 -0.227783 8.096595
H 6.136585 0.019765 8.609685
C 4.226380 -0.660181 8.735251
C 3.081854 -0.938500 7.989295
H 2.282481 -1.205519 8.427018
C 3.112270 -0.826420 6.617807
H 2.326714 -0.991591 6.110535
C 10.918104 0.113780 12.134609
H 10.953789 -0.414692 11.310444
H 11.815607 0.439779 12.352320
H 10.585414 -0.445396 12.867846
C 7.796725 2.151477 11.716776
H 8.125341 3.029128 11.873328
C 6.456042 1.968728 11.491216
H 5.876388 2.721087 11.505288
C 3.445199 1.206085 11.347248
C 3.513676 2.376847 12.172766
C 2.117769 0.789741 11.021966
C 3.697249 -3.297942 10.208356
C 3.451079 -4.237158 11.313556
C 3.036850 -6.273241 12.436753
H 2.934684 -7.217671 12.429446
C 3.289522 -5.614472 11.255779
H 3.351723 -6.084829 10.432291
O -1.299901 2.815192 1.955209
O -2.377507 -1.401570 3.829503
N -4.639048 3.153298 5.046469
N -1.923949 6.352976 5.286506
C 5.228828 3.249530 3.582971
H 5.434915 2.419601 4.060610
H 6.061078 3.726331 3.382714
H 4.762325 3.038891 2.748117
N 4.378260 4.087195 4.413766
C 3.064145 3.801663 4.564364
C 2.518276 2.587280 4.084966
H 3.086084 1.956386 3.657391
C 1.184278 2.305226 4.226228
H 0.861821 1.464728 3.921243
C 0.279530 3.199550 4.799666
C -1.134017 2.901847 4.824157
C -1.564931 1.466454 4.630801
C -1.775431 0.661005 5.864680
C -3.049660 0.218458 6.165741
H -3.781372 0.486357 5.623425
C -3.267240 -0.608387 7.245774
H -4.147773 -0.892029 7.460915
C -2.188774 -1.026161 8.020145
C -2.417865 -1.993751 9.055933
N -2.647528 -2.796519 9.844511
C 5.012272 5.171269 5.147138
H 4.945321 6.000080 4.627553
H 5.955876 4.956203 5.295978
H 4.563513 5.288857 6.009054
C 2.168175 4.677259 5.214928
H 2.500551 5.481639 5.595010
C 0.837387 4.395212 5.310862
H 0.264515 5.023366 5.735731
C -0.913217 -0.550308 7.754399
H -0.181659 -0.810354 8.302534
C -0.713374 0.303111 6.688032
H 0.154648 0.648003 6.515108
C -1.746188 0.929144 3.410723
C -1.537468 1.634284 2.107566
C -1.638194 0.613062 1.044582
C -1.884840 -0.633822 1.610713
C -1.973461 -1.773593 0.815775
H -2.134364 -2.629410 1.196128
C -1.818332 -1.612952 -0.547053
H -1.859730 -2.375073 -1.113590
C -1.600302 -0.352674 -1.110072
H -1.523575 -0.270203 -2.052631
C -1.495454 0.772944 -0.319734
H -1.331269 1.628027 -0.700898
C -2.047686 -0.514724 3.072587
C -2.145123 3.799147 5.038621
C -3.518917 3.401432 5.040515
C -1.984304 5.212703 5.181777
O 7.346447 5.234916 11.575649
O 8.424052 9.451677 9.701354
N 10.685593 4.896809 8.484389
N 7.970494 1.697131 8.244352
C 0.817717 4.800577 9.947887
H 0.611630 5.630506 9.470247
H -0.014533 4.323777 10.148143
H 1.284220 5.011217 10.782741
N 1.668285 3.962912 9.117092
C 2.982400 4.248445 8.966494
C 3.528269 5.462828 9.445892
H 2.960461 6.093721 9.873467
C 4.862267 5.744881 9.304630
H 5.184724 6.585380 9.609615
C 5.767015 4.850558 8.731192
C 7.180562 5.148261 8.706701
C 7.611476 6.583654 8.900057
C 7.821976 7.389102 7.666178
C 9.096205 7.831649 7.365117
H 9.827918 7.563750 7.907433
C 9.313785 8.658494 6.285083
H 10.194318 8.942137 6.069943
C 8.235319 9.076268 5.510712
C 8.464410 10.043858 4.474925
N 8.694073 10.846627 3.686347
C 1.034273 2.878839 8.383720
H 1.101224 2.050027 8.903304
H 0.090669 3.093905 8.234880
H 1.483032 2.761251 7.521804
C 3.878370 3.372848 8.315930
H 3.545994 2.568469 7.935848
C 5.209158 3.654896 8.219996
H 5.782030 3.026741 7.795127
C 6.959762 8.600415 5.776459
H 6.228204 8.860462 5.228323
C 6.759919 7.746997 6.842825
H 5.891897 7.402105 7.015750
C 7.792733 7.120963 10.120135
C 7.584014 6.415824 11.423291
C 7.684739 7.437045 12.486276
C 7.931385 8.683929 11.920145
C 8.020006 9.823701 12.715082
H 8.180909 10.679517 12.334730
C 7.864878 9.663059 14.077910
H 7.906275 10.425181 14.644447
C 7.646847 8.402781 14.640929
H 7.570120 8.320311 15.583489
C 7.541999 7.277164 13.850592
H 7.377814 6.422081 14.231756
C 8.094231 8.564831 10.458271
C 8.191668 4.250960 8.492237
C 9.565462 4.648676 8.490343
C 8.030849 2.837404 8.349081
