420
Lattice="4.717700 0.000000 0.000000 0.078462 16.964119 0.000000 0.561722 6.297469 18.393083"
S 4.110416 4.800090 9.170975
S 5.743002 6.467362 12.872767
O 2.493646 1.412773 11.924052
O 8.476848 9.538013 11.187593
N 3.709474 4.504290 11.693587
N 6.062467 6.932429 10.354018
C 2.980708 3.577476 9.678808
C 2.893893 3.595395 11.060497
C 2.006897 2.750471 11.926259
H 2.055992 3.099382 12.832854
H 1.088930 2.749382 11.587643
C 1.597985 0.540212 12.609010
H 0.664894 0.672312 12.264508
H 1.570637 0.782771 13.548345
C 2.015374 -0.882576 12.391972
H 1.504095 -1.494372 12.917462
C 2.922692 -1.294518 11.549017
H 3.449622 -0.653035 11.054243
H 3.046606 -2.301918 11.411069
C 4.409631 5.186108 10.820651
C 5.390686 6.189336 11.206538
C 6.871403 7.657834 12.399881
H 7.425526 8.123873 13.035178
C 6.909608 7.771717 11.045414
C 7.771319 8.713726 10.268491
H 8.391472 8.172291 9.728102
H 7.210556 9.284519 9.661887
C 9.185253 10.585573 10.541076
H 8.499243 11.254341 10.187929
H 9.677073 10.244613 9.805353
C 10.139984 11.197769 11.514070
H 10.996639 10.647802 11.973897
C 10.206877 12.400605 11.856182
H 9.605510 13.034456 11.482802
H 10.859078 12.679376 12.487064
C 2.298714 2.719992 8.714275
S 1.169005 1.497379 9.222108
C 0.869791 1.111361 7.572432
N 1.569947 1.793179 6.699497
C 2.385528 2.702074 7.332587
C 3.272524 3.546998 6.466824
O 2.785776 4.884696 6.469031
C 3.681437 5.757256 5.784073
H 4.614527 5.625157 6.128575
H 3.708785 5.514697 4.844738
C 3.264048 7.180044 6.001111
H 3.775326 7.791841 5.475621
C 2.356729 7.591986 6.844066
H 1.829800 6.950503 7.338840
H 2.232816 8.599387 6.982014
H 3.223429 3.198087 5.560229
H 4.190492 3.548087 6.805441
C -0.111264 0.108133 7.186546
S -0.463580 -0.169894 5.520316
C -1.591982 -1.360365 5.993202
H -2.146105 -1.826404 5.357905
C -1.630186 -1.474248 7.347669
N -0.783046 -0.634961 8.039065
C -2.491898 -2.416258 8.124593
O -3.197427 -3.240544 7.205490
C -3.905831 -4.288104 7.852007
H -3.219821 -4.956873 8.205154
H -4.397651 -3.947144 8.587731
C -4.860562 -4.900300 6.879013
H -5.717217 -4.350333 6.419186
C -4.927455 -6.103137 6.536902
H -4.326088 -6.736987 6.910281
H -5.579656 -6.381907 5.906019
H -3.112051 -1.874822 8.664982
H -1.931135 -2.987051 8.731197
S 4.188878 21.764208 9.170975
S 5.821463 23.431481 12.872767
O 2.572108 18.376892 11.924052
O 8.555310 26.502132 11.187593
N 3.787936 21.468408 11.693587
N 6.140929 23.896548 10.354018
C 3.059170 20.541595 9.678808
C 2.972355 20.559514 11.060497
C 2.085359 19.714589 11.926259
H 2.134454 20.063500 12.832854
H 1.167392 19.713500 11.587643
C 1.676446 17.504331 12.609010
H 0.743356 17.636430 12.264508
H 1.649099 17.746890 13.548345
C 2.093835 16.081543 12.391972
H 1.582557 15.469746 12.917462
C 3.001154 15.669601 11.549017
H 3.528084 16.311084 11.054243
H 3.125067 14.662201 11.411069
C 4.488092 22.150226 10.820651
C 5.469148 23.153455 11.206538
C 6.949865 24.621953 12.399881
H 7.503988 25.087991 13.035178
C 6.988070 24.735835 11.045414
C 7.849781 25.677845 10.268491
H 8.469934 25.136409 9.728102
H 7.289018 26.248638 9.661887
C 9.263714 27.549692 10.541076
H 8.577705 28.218460 10.187929
H 9.755535 27.208731 9.805353
C 10.218446 28.161888 11.514070
H 11.075101 27.611920 11.973897
C 10.285338 29.364724 11.856182
H 9.683972 29.998574 11.482802
H 10.937539 29.643494 12.487064
C 2.377175 19.684111 8.714275
S 1.247467 18.461498 9.222108
C 0.948253 18.075480 7.572432
N 1.648409 18.757297 6.699497
C 2.463990 19.666192 7.332587
C 3.350986 20.511116 6.466824
O 2.864237 21.848814 6.469031
C 3.759899 22.721375 5.784073
H 4.692989 22.589275 6.128575
H 3.787246 22.478816 4.844738
C 3.342510 24.144163 6.001111
H 3.853788 24.755960 5.475621
C 2.435191 24.556105 6.844066
H 1.908261 23.914622 7.338840
H 2.311278 25.563505 6.982014
H 3.301891 20.162206 5.560229
H 4.268953 20.512206 6.805441
C -0.032803 17.072251 7.186546
S -0.385118 16.794225 5.520316
C -1.513520 15.603753 5.993202
H -2.067643 15.137714 5.357905
C -1.551725 15.489871 7.347669
N -0.704584 16.329158 8.039065
C -2.413436 14.547861 8.124593
O -3.118965 13.723574 7.205490
C -3.827369 12.676014 7.852007
H -3.141360 12.007246 8.205154
H -4.319190 13.016975 8.587731
C -4.782101 12.063818 6.879013
H -5.638756 12.613785 6.419186
C -4.848993 10.860982 6.536902
H -4.247627 10.227132 6.910281
H -5.501194 10.582211 5.906019
H -3.033589 15.089297 8.664982
H -1.852673 13.977068 8.731197
S -0.619554 3.298501 -3.822083
S 0.895065 1.659518 -0.055731
O -3.474661 6.305958 -2.182891
O 2.541033 -1.882319 -2.580366
N -1.042149 3.724930 -1.312163
N 1.317193 1.257615 -2.562892
C -1.770621 4.484897 -3.374395
H -2.249054 4.993156 -4.011531
C -1.864535 4.578980 -2.021952
C -2.741586 5.518197 -1.260662
H -3.351979 4.989526 -0.717330
H -2.171462 6.141968 -0.700776
C -4.182586 7.352944 -1.544835
H -3.476930 8.024531 -1.118299
H -4.661268 6.952531 -0.790903
C -5.126530 7.967101 -2.552960
H -5.641832 7.367859 -3.080841
C -5.293320 9.201619 -2.758963
H -4.799299 9.837290 -2.254992
H -5.912071 9.493575 -3.417435
C -0.341712 2.992436 -2.145001
C 0.619347 1.988361 -1.721777
C 2.019282 0.410244 -0.501763
C 2.110667 0.362852 -1.883820
C 2.986250 -0.535728 -2.702312
H 2.978382 -0.240875 -3.656545
H 3.923659 -0.486509 -2.416851
C 3.454411 -2.770051 -3.219525
H 4.377396 -2.618620 -2.861964
H 3.467015 -2.573781 -4.167873
C 3.042018 -4.183206 -2.963494
H 3.491442 -4.797281 -3.457900
C 2.117279 -4.583770 -2.136173
H 1.642493 -3.965225 -1.622270
H 1.896977 -5.524488 -2.034275
C 2.698418 -0.410244 0.501763
S 3.822635 -1.659518 0.055731
C 4.098353 -1.988361 1.721777
N 3.400507 -1.257615 2.562892
C 2.607033 -0.362852 1.883820
C 1.731450 0.535728 2.702312
O 2.176667 1.882319 2.580366
C 1.263289 2.770051 3.219525
H 0.340304 2.618620 2.861964
H 1.250685 2.573781 4.167873
C 1.675682 4.183206 2.963494
H 1.226258 4.797281 3.457900
C 2.600421 4.583770 2.136173
H 3.075207 3.965225 1.622270
H 2.820723 5.524488 2.034275
H 1.739318 0.240875 3.656545
H 0.794041 0.486509 2.416851
C 5.059412 -2.992436 2.145001
S 5.337254 -3.298501 3.822083
C 6.488321 -4.484897 3.374395
H 6.966754 -4.993156 4.011531
C 6.582235 -4.578980 2.021952
N 5.759849 -3.724930 1.312163
C 7.459286 -5.518197 1.260662
O 8.192361 -6.305958 2.182891
C 8.900286 -7.352944 1.544835
H 8.194630 -8.024531 1.118299
H 9.378968 -6.952531 0.790903
C 9.844230 -7.967101 2.552960
H 10.359532 -7.367859 3.080841
C 10.011020 -9.201619 2.758963
H 9.516999 -9.837290 2.254992
H 10.629771 -9.493575 3.417435
H 8.069679 -4.989526 0.717330
H 6.889162 -6.141968 0.700776
S -0.057832 9.595970 14.571001
S 1.456787 7.956987 18.337352
O -2.912939 12.603426 16.210192
O 3.102754 4.415150 15.812718
N -0.480427 10.022398 17.080921
N 1.878915 7.555083 15.830191
C -1.208899 10.782365 15.018688
H -1.687332 11.290625 14.381552
C -1.302813 10.876449 16.371132
C -2.179865 11.815666 17.132421
H -2.790257 11.286994 17.675753
H -1.609740 12.439437 17.692307
C -3.620865 13.650413 16.848248
H -2.915208 14.322000 17.274784
H -4.099546 13.249999 17.602181
C -4.564808 14.264570 15.840123
H -5.080111 13.665328 15.312242
C -4.731598 15.499088 15.634121
H -4.237577 16.134759 16.138091
H -5.350350 15.791044 14.975648
C 0.220010 9.289905 16.248082
C 1.181068 8.285830 16.671307
C 2.581003 6.707713 17.891320
C 2.672389 6.660320 16.509264
C 3.547972 5.761741 15.690772
H 3.540104 6.056593 14.736538
H 4.485380 5.810960 15.976232
C 4.016133 3.527417 15.173558
H 4.939118 3.678849 15.531120
H 4.028737 3.723688 14.225211
C 3.603740 2.114263 15.429590
H 4.053164 1.500187 14.935184
C 2.679001 1.713699 16.256911
H 2.204214 2.332244 16.770813
H 2.458699 0.772981 16.358808
C 3.260140 5.887225 18.894847
S 4.384357 4.637951 18.448814
C 4.660075 4.309107 20.114860
N 3.962228 5.039854 20.955976
C 3.168755 5.934617 20.276903
C 2.293172 6.833197 21.095395
O 2.738389 8.179788 20.973449
C 1.825011 9.067520 21.612609
H 0.902025 8.916089 21.255047
H 1.812407 8.871250 22.560956
C 2.237404 10.480675 21.356577
H 1.787979 11.094750 21.850983
C 3.162143 10.881238 20.529256
H 3.636929 10.262693 20.015353
H 3.382444 11.821957 20.427358
H 2.301040 6.538344 22.049628
H 1.355763 6.783977 20.809935
C 5.621133 3.305032 20.538085
S 5.898975 2.998967 22.215166
C 7.050042 1.812572 21.767478
H 7.528475 1.304313 22.404615
C 7.143957 1.718489 20.415035
N 6.321571 2.572539 19.705246
C 8.021008 0.779272 19.653745
O 8.754083 -0.008489 20.575975
C 9.462008 -1.055476 19.937918
H 8.756351 -1.727062 19.511383
H 9.940690 -0.655062 19.183986
C 10.405952 -1.669632 20.946043
H 10.921254 -1.070390 21.473925
C 10.572742 -2.904150 21.152046
H 10.078721 -3.539821 20.648075
H 11.191493 -3.196106 21.810518
H 8.631400 1.307943 19.110414
H 7.450883 0.155501 19.093860
S -0.541092 20.262620 -3.822083
S 0.973527 18.623637 -0.055731
O -3.396199 23.270076 -2.182891
O 2.619494 15.081799 -2.580366
N -0.963687 20.689048 -1.312163
N 1.395655 18.221733 -2.562892
C -1.692159 21.449015 -3.374395
H -2.170592 21.957274 -4.011531
C -1.786073 21.543098 -2.021952
C -2.663125 22.482315 -1.260662
H -3.273517 21.953644 -0.717330
H -2.093000 23.106086 -0.700776
C -4.104125 24.317063 -1.544835
H -3.398468 24.988650 -1.118299
H -4.582806 23.916649 -0.790903
C -5.048068 24.931220 -2.552960
H -5.563371 24.331977 -3.080841
C -5.214858 26.165738 -2.758963
H -4.720837 26.801409 -2.254992
H -5.833610 26.457694 -3.417435
C -0.263250 19.956555 -2.145001
C 0.697808 18.952480 -1.721777
C 2.097743 17.374363 -0.501763
C 2.189129 17.326970 -1.883820
C 3.064712 16.428391 -2.702312
H 3.056844 16.723243 -3.656545
H 4.002120 16.477610 -2.416851
C 3.532873 14.194067 -3.219525
H 4.455858 14.345499 -2.861964
H 3.545477 14.390338 -4.167873
C 3.120480 12.780912 -2.963494
H 3.569904 12.166837 -3.457900
C 2.195741 12.380349 -2.136173
H 1.720954 12.998894 -1.622270
H 1.975439 11.439630 -2.034275
C 2.776880 16.553875 0.501763
S 3.901097 15.304600 0.055731
C 4.176815 14.975757 1.721777
N 3.478968 15.706504 2.562892
C 2.685495 16.601267 1.883820
C 1.809912 17.499847 2.702312
O 2.255129 18.846438 2.580366
C 1.341751 19.734170 3.219525
H 0.418765 19.582739 2.861964
H 1.329147 19.537899 4.167873
C 1.754144 21.147325 2.963494
H 1.304719 21.761400 3.457900
C 2.678883 21.547888 2.136173
H 3.153669 20.929343 1.622270
H 2.899184 22.488607 2.034275
H 1.817780 17.204994 3.656545
H 0.872503 17.450627 2.416851
C 5.137873 13.971682 2.145001
S 5.415715 13.665617 3.822083
C 6.566783 12.479222 3.374395
H 7.045215 11.970963 4.011531
C 6.660697 12.385139 2.021952
N 5.838311 13.239189 1.312163
C 7.537748 11.445922 1.260662
O 8.270823 10.658161 2.182891
C 8.978748 9.611174 1.544835
H 8.273091 8.939587 1.118299
H 9.457430 10.011588 0.790903
C 9.922692 8.997018 2.552960
H 10.437994 9.596260 3.080841
C 10.089482 7.762500 2.758963
H 9.595461 7.126828 2.254992
H 10.708233 7.470543 3.417435
H 8.148140 11.974593 0.717330
H 6.967623 10.822151 0.700776
S 0.020630 26.560089 14.571001
S 1.535249 24.921106 18.337352
O -2.834478 29.567545 16.210192
O 3.181216 21.379268 15.812718
N -0.401966 26.986517 17.080921
N 1.957377 24.519202 15.830191
C -1.130437 27.746484 15.018688
H -1.608870 28.254743 14.381552
C -1.224352 27.840567 16.371132
C -2.101403 28.779784 17.132421
H -2.711795 28.251113 17.675753
H -1.531278 29.403555 17.692307
C -3.542403 30.614532 16.848248
H -2.836746 31.286118 17.274784
H -4.021085 30.214118 17.602181
C -4.486346 31.228688 15.840123
H -5.001649 30.629446 15.312242
C -4.653137 32.463206 15.634121
H -4.159116 33.098877 16.138091
H -5.271888 32.755163 14.975648
C 0.298472 26.254024 16.248082
C 1.259530 25.249949 16.671307
C 2.659465 23.671831 17.891320
C 2.750850 23.624439 16.509264
C 3.626433 22.725859 15.690772
H 3.618565 23.020712 14.736538
H 4.563842 22.775079 15.976232
C 4.094594 20.491536 15.173558
H 5.017580 20.642967 15.531120
H 4.107198 20.687806 14.225211
C 3.682201 19.078381 15.429590
H 4.131626 18.464306 14.935184
C 2.757462 18.677818 16.256911
H 2.282676 19.296363 16.770813
H 2.537161 17.737099 16.358808
C 3.338602 22.851343 18.894847
S 4.462818 21.602069 18.448814
C 4.738537 21.273226 20.114860
N 4.040690 22.003973 20.955976
C 3.247216 22.898736 20.276903
C 2.371633 23.797315 21.095395
O 2.816851 25.143907 20.973449
C 1.903472 26.031639 21.612609
H 0.980487 25.880207 21.255047
H 1.890868 25.835368 22.560956
C 2.315865 27.444794 21.356577
H 1.866441 28.058869 21.850983
C 3.240604 27.845357 20.529256
H 3.715391 27.226812 20.015353
H 3.460906 28.786076 20.427358
H 2.379502 23.502463 22.049628
H 1.434225 23.748096 20.809935
C 5.699595 20.269151 20.538085
S 5.977437 19.963086 22.215166
C 7.128504 18.776691 21.767478
H 7.606937 18.268432 22.404615
C 7.222418 18.682608 20.415035
N 6.400032 19.536658 19.705246
C 8.099470 17.743391 19.653745
O 8.832544 16.955630 20.575975
C 9.540470 15.908643 19.937918
H 8.834813 15.237056 19.511383
H 10.019151 16.309057 19.183986
C 10.484413 15.294486 20.946043
H 10.999716 15.893728 21.473925
C 10.651203 14.059968 21.152046
H 10.157182 13.424297 20.648075
H 11.269955 13.768012 21.810518
H 8.709862 18.272062 19.110414
H 7.529345 17.119619 19.093860
